<!--<?xml version="1.0" encoding="UTF-8"?>-->

<!--&lt;!&ndash; generated on 2025-03-21 10:02:12 by Eclipse SUMO netedit Version 1.22.0-->
<!--<neteditConfiguration xmlns:xsi="http://www.w3.org/2001/XMLSchema-instance" xsi:noNamespaceSchemaLocation="http://sumo.dlr.de/xsd/neteditConfiguration.xsd">-->

<!--    <input>-->
<!--        <sumocfg-file value="C:\Users\tuand\Workspace\Project\Sumo\sumo\PVB\osm.sumocfg"/>-->
<!--        <additional-files value=""/>-->
<!--        <route-files value="C:\Users\tuand\Workspace\Project\Sumo\sumo\PVB\osm.rou.xml"/>-->
<!--        <sumo-net-file value="C:\Users\tuand\Workspace\Project\Sumo\sumo\PVB\osm.net.xml/osm.net.xml"/>-->
<!--    </input>-->

<!--    <output>-->
<!--        <output-file value="C:\Users\tuand\Workspace\Project\Sumo\sumo\PVB\osm.net.xml/osm.net.xml"/>-->
<!--        <output.street-names value="true"/>-->
<!--    </output>-->

<!--    <processing>-->
<!--        <geometry.min-radius.fix.railways value="false"/>-->
<!--        <geometry.max-grade.fix value="false"/>-->
<!--        <offset.disable-normalization value="true"/>-->
<!--        <lefthand value="0"/>-->
<!--    </processing>-->

<!--    <junctions>-->
<!--        <no-turnarounds value="true"/>-->
<!--        <junctions.corner-detail value="5"/>-->
<!--        <junctions.limit-turn-speed value="5.50"/>-->
<!--        <rectangular-lane-cut value="0"/>-->
<!--    </junctions>-->

<!--    <pedestrian>-->
<!--        <walkingareas value="0"/>-->
<!--    </pedestrian>-->

<!--    <netedit>-->
<!--        <ignore.routeelements value="false"/>-->
<!--    </netedit>-->

<!--</neteditConfiguration>-->
<!--&ndash;&gt;-->

<!--<net version="1.20" junctionCornerDetail="5" limitTurnSpeed="5.50" xmlns:xsi="http://www.w3.org/2001/XMLSchema-instance" xsi:noNamespaceSchemaLocation="http://sumo.dlr.de/xsd/net_file.xsd">-->

<!--    <location netOffset="-581691.41,-2324842.18" convBoundary="220.62,126.91,517.46,401.12" origBoundary="105.786145,21.022517,105.791586,21.027222" projParameter="+proj=utm +zone=48 +ellps=WGS84 +datum=WGS84 +units=m +no_defs"/>-->

<!--    <type id="highway.residential" priority="3" numLanes="1" speed="13.89" disallow="tram rail_urban rail rail_electric rail_fast ship container cable_car subway aircraft wheelchair scooter drone" oneway="0"/>-->
<!--    <type id="highway.secondary" priority="11" numLanes="1" speed="27.78" disallow="tram rail_urban rail rail_electric rail_fast ship container cable_car subway aircraft wheelchair scooter drone" oneway="0"/>-->

<!--    <edge id=":10225394963_0" function="internal">-->
<!--        <lane id=":10225394963_0_0" index="0" disallow="tram rail_urban rail rail_electric rail_fast ship container cable_car subway aircraft wheelchair scooter drone" speed="13.89" length="0.10" shape="345.05,256.28 345.05,256.28"/>-->
<!--    </edge>-->
<!--    <edge id=":10225394963_1" function="internal">-->
<!--        <lane id=":10225394963_1_0" index="0" disallow="tram rail_urban rail rail_electric rail_fast ship container cable_car subway aircraft wheelchair scooter drone" speed="13.89" length="0.10" shape="347.03,253.78 347.03,253.78"/>-->
<!--    </edge>-->
<!--    <edge id=":6629490566_0" function="internal">-->
<!--        <lane id=":6629490566_0_0" index="0" disallow="tram rail_urban rail rail_electric rail_fast ship container cable_car subway aircraft wheelchair scooter drone" speed="27.78" length="0.11" shape="300.23,248.15 300.24,248.15"/>-->
<!--        <lane id=":6629490566_0_1" index="1" disallow="tram rail_urban rail rail_electric rail_fast ship container cable_car subway aircraft wheelchair scooter drone" speed="27.78" length="0.11" shape="302.99,249.77 303.06,249.66"/>-->
<!--        <lane id=":6629490566_0_2" index="2" disallow="tram rail_urban rail rail_electric rail_fast ship container cable_car subway aircraft wheelchair scooter drone" speed="27.78" length="0.11" shape="305.75,251.39 305.85,251.22"/>-->
<!--    </edge>-->
<!--    <edge id=":7543174099_0" function="internal">-->
<!--        <lane id=":7543174099_0_0" index="0" disallow="tram rail_urban rail rail_electric rail_fast ship container cable_car subway aircraft wheelchair scooter drone" speed="3.65" length="4.67" shape="518.45,389.69 518.90,391.06 518.71,391.93 517.90,392.31 516.47,392.19"/>-->
<!--    </edge>-->
<!--    <edge id=":cluster_10203920324_10203920325_1881928007_5718886024_#2more_0" function="internal">-->
<!--        <lane id=":cluster_10203920324_10203920325_1881928007_5718886024_#2more_0_0" index="0" disallow="tram rail_urban rail rail_electric rail_fast ship container cable_car subway aircraft wheelchair scooter drone" speed="5.06" length="10.95" shape="378.22,124.99 381.26,123.53 383.36,123.68 384.49,125.44 384.67,128.81"/>-->
<!--    </edge>-->
<!--    <edge id=":cluster_10206343448_10225394922_1221049366_1748294250_#4more_0" function="internal">-->
<!--        <lane id=":cluster_10206343448_10225394922_1221049366_1748294250_#4more_0_0" index="0" disallow="tram rail_urban rail rail_electric rail_fast ship container cable_car subway aircraft wheelchair scooter drone" speed="9.14" length="19.91" shape="331.69,246.09 329.06,245.64 325.88,247.55 322.16,251.81 317.90,258.43"/>-->
<!--    </edge>-->
<!--    <edge id=":cluster_10206343448_10225394922_1221049366_1748294250_#4more_1" function="internal">-->
<!--        <lane id=":cluster_10206343448_10225394922_1221049366_1748294250_#4more_1_0" index="0" disallow="tram rail_urban rail rail_electric rail_fast ship container cable_car subway aircraft wheelchair scooter drone" speed="13.89" length="38.34" shape="331.69,246.09 299.83,224.75"/>-->
<!--    </edge>-->
<!--    <edge id=":cluster_10206343448_10225394922_1221049366_1748294250_#4more_2" function="internal">-->
<!--        <lane id=":cluster_10206343448_10225394922_1221049366_1748294250_#4more_2_0" index="0" disallow="tram rail_urban rail rail_electric rail_fast ship container cable_car subway aircraft wheelchair scooter drone" speed="12.42" length="33.14" shape="331.69,246.09 325.11,240.04 321.81,233.21 321.80,225.60 325.06,217.21"/>-->
<!--    </edge>-->
<!--    <edge id=":cluster_10206343448_10225394922_1221049366_1748294250_#4more_3" function="internal">-->
<!--        <lane id=":cluster_10206343448_10225394922_1221049366_1748294250_#4more_3_0" index="0" disallow="tram rail_urban rail rail_electric rail_fast ship container cable_car subway aircraft wheelchair scooter drone" speed="3.65" length="4.67" shape="331.69,246.09 331.16,244.75 331.28,243.86 332.06,243.43 333.50,243.45"/>-->
<!--    </edge>-->
<!--    <edge id=":cluster_10206343448_10225394922_1221049366_1748294250_#4more_4" function="internal">-->
<!--        <lane id=":cluster_10206343448_10225394922_1221049366_1748294250_#4more_4_0" index="0" disallow="tram rail_urban rail rail_electric rail_fast ship container cable_car subway aircraft wheelchair scooter drone" speed="9.90" length="20.81" shape="337.72,224.29 334.08,231.43 332.16,237.01 331.97,241.01 333.50,243.45"/>-->
<!--    </edge>-->
<!--    <edge id=":cluster_10206343448_10225394922_1221049366_1748294250_#4more_5" function="internal">-->
<!--        <lane id=":cluster_10206343448_10225394922_1221049366_1748294250_#4more_5_0" index="0" disallow="tram rail_urban rail rail_electric rail_fast ship container cable_car subway aircraft wheelchair scooter drone" speed="27.78" length="39.42" shape="337.72,224.29 317.90,258.43"/>-->
<!--        <lane id=":cluster_10206343448_10225394922_1221049366_1748294250_#4more_5_1" index="1" disallow="tram rail_urban rail rail_electric rail_fast ship container cable_car subway aircraft wheelchair scooter drone" speed="27.78" length="39.42" shape="334.93,222.73 315.13,256.82"/>-->
<!--        <lane id=":cluster_10206343448_10225394922_1221049366_1748294250_#4more_5_2" index="2" disallow="tram rail_urban rail rail_electric rail_fast ship container cable_car subway aircraft wheelchair scooter drone" speed="27.78" length="39.42" shape="332.14,221.17 312.36,255.21"/>-->
<!--    </edge>-->
<!--    <edge id=":cluster_10206343448_10225394922_1221049366_1748294250_#4more_8" function="internal">-->
<!--        <lane id=":cluster_10206343448_10225394922_1221049366_1748294250_#4more_8_0" index="0" disallow="tram rail_urban rail rail_electric rail_fast ship container cable_car subway aircraft wheelchair scooter drone" speed="12.44" length="39.17" shape="332.14,221.17 325.36,229.87 318.06,232.90 309.73,230.96 299.83,224.75"/>-->
<!--    </edge>-->
<!--    <edge id=":cluster_10206343448_10225394922_1221049366_1748294250_#4more_9" function="internal">-->
<!--        <lane id=":cluster_10206343448_10225394922_1221049366_1748294250_#4more_9_0" index="0" disallow="tram rail_urban rail rail_electric rail_fast ship container cable_car subway aircraft wheelchair scooter drone" speed="5.20" length="11.84" shape="332.14,221.17 328.89,222.83 326.62,222.73 325.35,220.85 325.06,217.21"/>-->
<!--    </edge>-->
<!--    <edge id=":cluster_10206343448_10225394922_1221049366_1748294250_#4more_10" function="internal">-->
<!--        <lane id=":cluster_10206343448_10225394922_1221049366_1748294250_#4more_10_0" index="0" disallow="tram rail_urban rail rail_electric rail_fast ship container cable_car subway aircraft wheelchair scooter drone" speed="9.53" length="22.62" shape="301.75,222.19 306.35,224.29 310.84,223.64 315.21,220.24 319.48,214.09"/>-->
<!--    </edge>-->
<!--    <edge id=":cluster_10206343448_10225394922_1221049366_1748294250_#4more_11" function="internal">-->
<!--        <lane id=":cluster_10206343448_10225394922_1221049366_1748294250_#4more_11_0" index="0" disallow="tram rail_urban rail rail_electric rail_fast ship container cable_car subway aircraft wheelchair scooter drone" speed="13.89" length="38.22" shape="301.75,222.19 333.50,243.45"/>-->
<!--    </edge>-->
<!--    <edge id=":cluster_10206343448_10225394922_1221049366_1748294250_#4more_12" function="internal">-->
<!--        <lane id=":cluster_10206343448_10225394922_1221049366_1748294250_#4more_12_0" index="0" disallow="tram rail_urban rail rail_electric rail_fast ship container cable_car subway aircraft wheelchair scooter drone" speed="13.48" length="38.50" shape="301.75,222.19 310.21,230.08 314.80,238.21 315.52,246.59 312.36,255.21"/>-->
<!--    </edge>-->
<!--    <edge id=":cluster_10206343448_10225394922_1221049366_1748294250_#4more_13" function="internal">-->
<!--        <lane id=":cluster_10206343448_10225394922_1221049366_1748294250_#4more_13_0" index="0" disallow="tram rail_urban rail rail_electric rail_fast ship container cable_car subway aircraft wheelchair scooter drone" speed="3.65" length="4.67" shape="301.75,222.19 302.23,223.55 302.07,224.43 301.27,224.83 299.83,224.75"/>-->
<!--    </edge>-->
<!--    <edge id=":cluster_10206343448_10225394922_1221049366_1748294250_#4more_14" function="internal">-->
<!--        <lane id=":cluster_10206343448_10225394922_1221049366_1748294250_#4more_14_0" index="0" disallow="tram rail_urban rail rail_electric rail_fast ship container cable_car subway aircraft wheelchair scooter drone" speed="11.18" length="25.30" shape="300.37,247.89 303.57,240.33 304.55,233.96 303.30,228.76 299.83,224.75"/>-->
<!--    </edge>-->
<!--    <edge id=":cluster_10206343448_10225394922_1221049366_1748294250_#4more_15" function="internal">-->
<!--        <lane id=":cluster_10206343448_10225394922_1221049366_1748294250_#4more_15_0" index="0" disallow="tram rail_urban rail rail_electric rail_fast ship container cable_car subway aircraft wheelchair scooter drone" speed="27.78" length="38.85" shape="300.37,247.89 319.48,214.09"/>-->
<!--        <lane id=":cluster_10206343448_10225394922_1221049366_1748294250_#4more_15_1" index="1" disallow="tram rail_urban rail rail_electric rail_fast ship container cable_car subway aircraft wheelchair scooter drone" speed="27.78" length="38.85" shape="303.15,249.48 322.27,215.65"/>-->
<!--        <lane id=":cluster_10206343448_10225394922_1221049366_1748294250_#4more_15_2" index="2" disallow="tram rail_urban rail rail_electric rail_fast ship container cable_car subway aircraft wheelchair scooter drone" speed="27.78" length="38.85" shape="305.95,251.04 325.06,217.21"/>-->
<!--    </edge>-->
<!--    <edge id=":cluster_10206343448_10225394922_1221049366_1748294250_#4more_18" function="internal">-->
<!--        <lane id=":cluster_10206343448_10225394922_1221049366_1748294250_#4more_18_0" index="0" disallow="tram rail_urban rail rail_electric rail_fast ship container cable_car subway aircraft wheelchair scooter drone" speed="11.71" length="34.39" shape="305.95,251.04 311.55,242.67 317.60,238.61 324.72,238.87 333.50,243.45"/>-->
<!--    </edge>-->
<!--    <edge id=":cluster_10206343448_10225394922_1221049366_1748294250_#4more_19" function="internal">-->
<!--        <lane id=":cluster_10206343448_10225394922_1221049366_1748294250_#4more_19_0" index="0" disallow="tram rail_urban rail rail_electric rail_fast ship container cable_car subway aircraft wheelchair scooter drone" speed="5.10" length="11.18" shape="305.95,251.04 309.12,249.68 311.24,249.92 312.32,251.76 312.36,255.21"/>-->
<!--    </edge>-->
<!--    <edge id=":cluster_10225378795_5718885710_0" function="internal">-->
<!--        <lane id=":cluster_10225378795_5718885710_0_0" index="0" disallow="tram rail_urban rail rail_electric rail_fast ship container cable_car subway aircraft wheelchair scooter drone" speed="27.78" length="0.42" shape="355.29,150.02 355.58,149.54"/>-->
<!--        <lane id=":cluster_10225378795_5718885710_0_1" index="1" disallow="tram rail_urban rail rail_electric rail_fast ship container cable_car subway aircraft wheelchair scooter drone" speed="27.78" length="0.42" shape="358.09,151.58 358.30,151.22"/>-->
<!--        <lane id=":cluster_10225378795_5718885710_0_2" index="2" disallow="tram rail_urban rail rail_electric rail_fast ship container cable_car subway aircraft wheelchair scooter drone" speed="27.78" length="0.42" shape="360.88,153.14 361.02,152.90"/>-->
<!--    </edge>-->
<!--    <edge id=":cluster_10225394923_5716671109_0" function="internal">-->
<!--        <lane id=":cluster_10225394923_5716671109_0_0" index="0" disallow="tram rail_urban rail rail_electric rail_fast ship container cable_car subway aircraft wheelchair scooter drone" speed="27.78" length="0.30" shape="366.14,174.33 365.99,174.59"/>-->
<!--        <lane id=":cluster_10225394923_5716671109_0_1" index="1" disallow="tram rail_urban rail rail_electric rail_fast ship container cable_car subway aircraft wheelchair scooter drone" speed="27.78" length="0.30" shape="363.35,172.75 363.21,173.01"/>-->
<!--        <lane id=":cluster_10225394923_5716671109_0_2" index="2" disallow="tram rail_urban rail rail_electric rail_fast ship container cable_car subway aircraft wheelchair scooter drone" speed="27.78" length="0.30" shape="360.57,171.17 360.42,171.43"/>-->
<!--    </edge>-->
<!--    <edge id=":cluster_1919750970_4045298642_6629490567_6629490568_0" function="internal">-->
<!--        <lane id=":cluster_1919750970_4045298642_6629490567_6629490568_0_0" index="0" disallow="tram rail_urban rail rail_electric rail_fast ship container cable_car subway aircraft wheelchair scooter drone" speed="5.23" length="11.98" shape="226.24,403.08 222.91,404.70 220.63,404.55 219.37,402.63 219.16,398.94"/>-->
<!--    </edge>-->

<!--    <edge id="-163053426#0" from="10225394963" to="7543174099" name="Phố Hoàng Quán Chi" priority="3" type="highway.residential" shape="346.04,255.03 450.35,337.71 468.05,351.75 500.90,377.80 517.46,390.94">-->
<!--        <lane id="-163053426#0_0" index="0" disallow="tram rail_urban rail rail_electric rail_fast ship container cable_car subway aircraft wheelchair scooter drone" speed="13.89" length="218.76" shape="347.03,253.78 451.34,336.46 469.04,350.50 501.89,376.55 518.45,389.69">-->
<!--            <param key="origId" value="163053426"/>-->
<!--        </lane>-->
<!--    </edge>-->
<!--    <edge id="-163053426#1" from="cluster_10206343448_10225394922_1221049366_1748294250_#4more" to="10225394963" name="Phố Hoàng Quán Chi" priority="3" type="highway.residential" shape="324.56,239.24 336.28,247.30 346.04,255.03">-->
<!--        <lane id="-163053426#1_0" index="0" disallow="tram rail_urban rail rail_electric rail_fast ship container cable_car subway aircraft wheelchair scooter drone" speed="13.89" length="17.03" shape="333.50,243.45 337.23,246.01 347.03,253.78">-->
<!--            <param key="origId" value="163053426"/>-->
<!--        </lane>-->
<!--        <param key="origFrom" value="1748294257"/>-->
<!--    </edge>-->
<!--    <edge id="-163053426#4" from="cluster_10225378784_5718885712" to="cluster_10206343448_10225394922_1221049366_1748294250_#4more" name="Phố Hoàng Quán Chi" priority="3" type="highway.residential" shape="237.06,175.86 300.79,223.47">-->
<!--        <lane id="-163053426#4_0" index="0" disallow="tram rail_urban rail rail_electric rail_fast ship container cable_car subway aircraft wheelchair scooter drone" speed="13.89" length="79.55" shape="238.02,174.58 301.75,222.19">-->
<!--            <param key="origId" value="163053426"/>-->
<!--        </lane>-->
<!--        <param key="origFrom" value="5718885712"/>-->
<!--        <param key="origTo" value="6672692461"/>-->
<!--    </edge>-->
<!--    <edge id="106042137#4" from="cluster_10203920324_10203920325_1881928007_5718886024_#2more" to="cluster_10225394923_5716671109" name="Phố Phạm Văn Bạch" priority="11" type="highway.secondary" spreadType="center" shape="385.25,134.27 363.28,172.88">-->
<!--        <lane id="106042137#4_0" index="0" disallow="tram rail_urban rail rail_electric rail_fast ship container cable_car subway aircraft wheelchair scooter drone" speed="27.78" length="48.73" shape="390.24,131.98 366.14,174.33">-->
<!--            <param key="origId" value="106042137"/>-->
<!--        </lane>-->
<!--        <lane id="106042137#4_1" index="1" disallow="tram rail_urban rail rail_electric rail_fast ship container cable_car subway aircraft wheelchair scooter drone" speed="27.78" length="48.73" shape="387.45,130.40 363.35,172.75">-->
<!--            <param key="origId" value="106042137"/>-->
<!--        </lane>-->
<!--        <lane id="106042137#4_2" index="2" disallow="tram rail_urban rail rail_electric rail_fast ship container cable_car subway aircraft wheelchair scooter drone" speed="27.78" length="48.73" shape="384.67,128.81 360.57,171.17">-->
<!--            <param key="origId" value="106042137"/>-->
<!--        </lane>-->
<!--        <param key="origFrom" value="6672519667"/>-->
<!--        <param key="origTo" value="5716671109"/>-->
<!--    </edge>-->
<!--    <edge id="106042137#5" from="cluster_10225394923_5716671109" to="cluster_10206343448_10225394922_1221049366_1748294250_#4more" name="Phố Phạm Văn Bạch" priority="11" type="highway.secondary" spreadType="center" shape="363.28,172.88 338.62,216.24">-->
<!--        <lane id="106042137#5_0" index="0" disallow="tram rail_urban rail rail_electric rail_fast ship container cable_car subway aircraft wheelchair scooter drone" speed="27.78" length="57.20" shape="365.99,174.59 337.72,224.29">-->
<!--            <param key="origId" value="106042137"/>-->
<!--        </lane>-->
<!--        <lane id="106042137#5_1" index="1" disallow="tram rail_urban rail rail_electric rail_fast ship container cable_car subway aircraft wheelchair scooter drone" speed="27.78" length="57.20" shape="363.21,173.01 334.93,222.73">-->
<!--            <param key="origId" value="106042137"/>-->
<!--        </lane>-->
<!--        <lane id="106042137#5_2" index="2" disallow="tram rail_urban rail rail_electric rail_fast ship container cable_car subway aircraft wheelchair scooter drone" speed="27.78" length="57.20" shape="360.42,171.43 332.14,221.17">-->
<!--            <param key="origId" value="106042137"/>-->
<!--        </lane>-->
<!--        <param key="origFrom" value="5716671109"/>-->
<!--        <param key="origTo" value="10206343448"/>-->
<!--    </edge>-->
<!--    <edge id="116432101#5" from="cluster_10206343448_10225394922_1221049366_1748294250_#4more" to="cluster_10225378795_5718885710" name="Phố Phạm Văn Bạch" priority="11" type="highway.secondary" spreadType="center" shape="322.27,215.65 358.19,151.40">-->
<!--        <lane id="116432101#5_0" index="0" disallow="tram rail_urban rail rail_electric rail_fast ship container cable_car subway aircraft wheelchair scooter drone" speed="27.78" length="73.40" shape="319.48,214.09 355.29,150.02">-->
<!--            <param key="origId" value="116432101"/>-->
<!--        </lane>-->
<!--        <lane id="116432101#5_1" index="1" disallow="tram rail_urban rail rail_electric rail_fast ship container cable_car subway aircraft wheelchair scooter drone" speed="27.78" length="73.40" shape="322.27,215.65 358.09,151.58">-->
<!--            <param key="origId" value="116432101"/>-->
<!--        </lane>-->
<!--        <lane id="116432101#5_2" index="2" disallow="tram rail_urban rail rail_electric rail_fast ship container cable_car subway aircraft wheelchair scooter drone" speed="27.78" length="73.40" shape="325.06,217.21 360.88,153.14">-->
<!--            <param key="origId" value="116432101"/>-->
<!--        </lane>-->
<!--        <param key="origFrom" value="6672692458"/>-->
<!--        <param key="origTo" value="5718885710"/>-->
<!--    </edge>-->
<!--    <edge id="116432101#6" from="cluster_10225378795_5718885710" to="cluster_10203920324_10203920325_1881928007_5718886024_#2more" name="Phố Phạm Văn Bạch" priority="11" type="highway.secondary" spreadType="center" shape="358.19,151.40 373.26,126.94">-->
<!--        <lane id="116432101#6_0" index="0" disallow="tram rail_urban rail rail_electric rail_fast ship container cable_car subway aircraft wheelchair scooter drone" speed="27.78" length="32.78" shape="355.58,149.54 372.77,121.64">-->
<!--            <param key="origId" value="116432101"/>-->
<!--        </lane>-->
<!--        <lane id="116432101#6_1" index="1" disallow="tram rail_urban rail rail_electric rail_fast ship container cable_car subway aircraft wheelchair scooter drone" speed="27.78" length="32.78" shape="358.30,151.22 375.49,123.31">-->
<!--            <param key="origId" value="116432101"/>-->
<!--        </lane>-->
<!--        <lane id="116432101#6_2" index="2" disallow="tram rail_urban rail rail_electric rail_fast ship container cable_car subway aircraft wheelchair scooter drone" speed="27.78" length="32.78" shape="361.02,152.90 378.22,124.99">-->
<!--            <param key="origId" value="116432101"/>-->
<!--        </lane>-->
<!--        <param key="origFrom" value="5718885710"/>-->
<!--        <param key="origTo" value="6672519668"/>-->
<!--    </edge>-->
<!--    <edge id="163053426#0" from="7543174099" to="10225394963" name="Phố Hoàng Quán Chi" priority="3" type="highway.residential" shape="517.46,390.94 500.90,377.80 468.05,351.75 450.35,337.71 346.04,255.03">-->
<!--        <lane id="163053426#0_0" index="0" disallow="tram rail_urban rail rail_electric rail_fast ship container cable_car subway aircraft wheelchair scooter drone" speed="13.89" length="218.76" shape="516.47,392.19 499.91,379.05 467.06,353.00 449.36,338.96 345.05,256.28">-->
<!--            <param key="origId" value="163053426"/>-->
<!--        </lane>-->
<!--    </edge>-->
<!--    <edge id="163053426#1" from="10225394963" to="cluster_10206343448_10225394922_1221049366_1748294250_#4more" name="Phố Hoàng Quán Chi" priority="3" type="highway.residential" shape="346.04,255.03 336.28,247.30 324.56,239.24">-->
<!--        <lane id="163053426#1_0" index="0" disallow="tram rail_urban rail rail_electric rail_fast ship container cable_car subway aircraft wheelchair scooter drone" speed="13.89" length="16.81" shape="345.05,256.28 335.33,248.59 331.69,246.09">-->
<!--            <param key="origId" value="163053426"/>-->
<!--        </lane>-->
<!--        <param key="origTo" value="1748294257"/>-->
<!--    </edge>-->
<!--    <edge id="163053426#4" from="cluster_10206343448_10225394922_1221049366_1748294250_#4more" to="cluster_10225378784_5718885712" name="Phố Hoàng Quán Chi" priority="3" type="highway.residential" shape="300.79,223.47 237.06,175.86">-->
<!--        <lane id="163053426#4_0" index="0" disallow="tram rail_urban rail rail_electric rail_fast ship container cable_car subway aircraft wheelchair scooter drone" speed="13.89" length="79.55" shape="299.83,224.75 236.10,177.14">-->
<!--            <param key="origId" value="163053426"/>-->
<!--        </lane>-->
<!--        <param key="origFrom" value="6672692461"/>-->
<!--        <param key="origTo" value="5718885712"/>-->
<!--    </edge>-->
<!--    <edge id="north_in#1" from="6629490566" to="cluster_10206343448_10225394922_1221049366_1748294250_#4more" name="Phố Phạm Văn Bạch" priority="11" type="highway.secondary" spreadType="center" shape="303.10,249.58 312.64,231.54">-->
<!--        <lane id="north_in#1_0" index="0" disallow="tram rail_urban rail rail_electric rail_fast ship container cable_car subway aircraft wheelchair scooter drone" speed="27.78" length="0.23" shape="300.24,248.15 300.37,247.89">-->
<!--            <param key="origId" value="116432101"/>-->
<!--        </lane>-->
<!--        <lane id="north_in#1_1" index="1" disallow="tram rail_urban rail rail_electric rail_fast ship container cable_car subway aircraft wheelchair scooter drone" speed="27.78" length="0.23" shape="303.06,249.66 303.15,249.48">-->
<!--            <param key="origId" value="116432101"/>-->
<!--        </lane>-->
<!--        <lane id="north_in#1_2" index="2" disallow="tram rail_urban rail rail_electric rail_fast ship container cable_car subway aircraft wheelchair scooter drone" speed="27.78" length="0.23" shape="305.85,251.22 305.95,251.04">-->
<!--            <param key="origId" value="116432101"/>-->
<!--        </lane>-->
<!--        <param key="origTo" value="1748294250"/>-->
<!--    </edge>-->
<!--    <edge id="north_in#2" from="cluster_1919750970_4045298642_6629490567_6629490568" to="6629490566" name="Phố Phạm Văn Bạch" priority="11" type="highway.secondary" spreadType="center" shape="220.62,390.12 303.10,249.58">-->
<!--        <lane id="north_in#2_0" index="0" disallow="tram rail_urban rail rail_electric rail_fast ship container cable_car subway aircraft wheelchair scooter drone" speed="27.78" length="171.09" shape="213.63,395.71 300.23,248.15">-->
<!--            <param key="origId" value="116432101"/>-->
<!--        </lane>-->
<!--        <lane id="north_in#2_1" index="1" disallow="tram rail_urban rail rail_electric rail_fast ship container cable_car subway aircraft wheelchair scooter drone" speed="27.78" length="171.09" shape="216.39,397.32 302.99,249.77">-->
<!--            <param key="origId" value="116432101"/>-->
<!--        </lane>-->
<!--        <lane id="north_in#2_2" index="2" disallow="tram rail_urban rail rail_electric rail_fast ship container cable_car subway aircraft wheelchair scooter drone" speed="27.78" length="171.09" shape="219.16,398.94 305.75,251.39">-->
<!--            <param key="origId" value="116432101"/>-->
<!--        </lane>-->
<!--    </edge>-->
<!--    <edge id="north_out" from="cluster_10206343448_10225394922_1221049366_1748294250_#4more" to="cluster_1919750970_4045298642_6629490567_6629490568" name="Phố Phạm Văn Bạch" priority="11" type="highway.secondary" spreadType="center" shape="315.13,256.82 233.16,397.55">-->
<!--        <lane id="north_out_0" index="0" disallow="tram rail_urban rail rail_electric rail_fast ship container cable_car subway aircraft wheelchair scooter drone" speed="27.78" length="171.13" shape="317.90,258.43 231.76,406.31">-->
<!--            <param key="origId" value="106042137"/>-->
<!--        </lane>-->
<!--        <lane id="north_out_1" index="1" disallow="tram rail_urban rail rail_electric rail_fast ship container cable_car subway aircraft wheelchair scooter drone" speed="27.78" length="171.13" shape="315.13,256.82 229.00,404.69">-->
<!--            <param key="origId" value="106042137"/>-->
<!--        </lane>-->
<!--        <lane id="north_out_2" index="2" disallow="tram rail_urban rail rail_electric rail_fast ship container cable_car subway aircraft wheelchair scooter drone" speed="27.78" length="171.13" shape="312.36,255.21 226.24,403.08">-->
<!--            <param key="origId" value="106042137"/>-->
<!--        </lane>-->
<!--        <param key="origFrom" value="6629490565"/>-->
<!--        <param key="origTo" value="6629490567"/>-->
<!--    </edge>-->

<!--    <tlLogic id="joinedS_10225394963_6629490566_cluster_10206343448_10225394922_1221049366_1748294250_#4more" type="actuated" programID="0" offset="0">-->
<!--        <phase duration="15" state="GGrrrGGGGrrrrrrrrrrrrrrrr" minDur="5" maxDur="50"/>-->
<!--        <phase duration="6"  state="yGrrryyyyrrrrrrrrrrrrrrrr"/>-->
<!--        <phase duration="17" state="rGGGGrrrrrrrrrrrrrrGGGGGG" minDur="13" maxDur="50"/>-->
<!--        <phase duration="6"  state="rGyyyrrrrrrrrrrrrrryyyyyy"/>-->
<!--        <phase duration="17" state="rGrrrrrrrGGGGGGrrrrrrrrrr" minDur="13" maxDur="50"/>-->
<!--        <phase duration="6"  state="rGrrrrrrryyyyyyrrrrrrrrrr"/>-->
<!--        <phase duration="17" state="rGrrrrrrrrrrrrrGGGGrrrrrr" minDur="5" maxDur="50"/>-->
<!--        <phase duration="6"  state="rGrrrrrrrrrrrrryyyyrrrrrr"/>-->
<!--    </tlLogic>-->

<!--    <junction id="10225394963" type="traffic_light" x="346.04" y="255.03" incLanes="163053426#0_0 -163053426#1_0" intLanes=":10225394963_0_0 :10225394963_1_0" shape="344.05,257.54 348.03,252.52 344.05,257.54">-->
<!--        <request index="0" response="00" foes="00" cont="0"/>-->
<!--        <request index="1" response="00" foes="00" cont="0"/>-->
<!--    </junction>-->
<!--    <junction id="6629490566" type="traffic_light" x="303.10" y="249.58" incLanes="north_in#2_0 north_in#2_1 north_in#2_2" intLanes=":6629490566_0_0 :6629490566_0_1 :6629490566_0_2" shape="307.44,251.63 298.96,247.14 298.85,247.34 307.13,252.20">-->
<!--        <request index="0" response="000" foes="000" cont="0"/>-->