<?xml version="1.0" encoding="UTF-8"?>

<!-- generated on 2025-03-24 00:09:48.382334 by routeSampler.py v1_22_0+0002-63e50f52594
<configuration>
    <route-files value=".\osm.rou.xml"/>
    <turn-ratio-files value=".\pvb-turn_ratios.dat.xml"/>
    <edgedata-files value=".\pvb-car.dat.xml"/>
    <output-file value=".\cars.rou.xml"/>
    <prefix value="c"/>
    <attributes value="type=&quot;car&quot; departLane=&quot;free&quot;"/>
</configuration>
-->

<routes xmlns:xsi="http://www.w3.org/2001/XMLSchema-instance" xsi:noNamespaceSchemaLocation="http://sumo.dlr.de/xsd/routes_file.xsd">
<!-- begin="0.0" end="3600.0" -->
    <vehicle id="c0" depart="0.86" type="car" departLane="free">
        <route edges="S2C C2N"/>
    </vehicle>
    <vehicle id="c1" depart="8.42" type="car" departLane="free">
        <route edges="S2C C2N"/>
    </vehicle>
    <vehicle id="c2" depart="9.76" type="car" departLane="free">
        <route edges="E2W C2S"/>
    </vehicle>
    <vehicle id="c3" depart="12.05" type="car" departLane="free">
        <route edges="N2C C2S"/>
    </vehicle>
    <vehicle id="c4" depart="18.91" type="car" departLane="free">
        <route edges="S2C C2N"/>
    </vehicle>
    <vehicle id="c5" depart="19.08" type="car" departLane="free">
        <route edges="E2W C2W"/>
    </vehicle>
    <vehicle id="c6" depart="27.12" type="car" departLane="free">
        <route edges="E2W C2W"/>
    </vehicle>
    <vehicle id="c7" depart="34.15" type="car" departLane="free">
        <route edges="W2C C2E"/>
    </vehicle>
    <vehicle id="c8" depart="43.93" type="car" departLane="free">
        <route edges="N2C C2S"/>
    </vehicle>
    <vehicle id="c9" depart="65.67" type="car" departLane="free">
        <route edges="E2W C2W"/>
    </vehicle>
    <vehicle id="c10" depart="82.88" type="car" departLane="free">
        <route edges="E2W C2W"/>
    </vehicle>
    <vehicle id="c11" depart="118.25" type="car" departLane="free">
        <route edges="W2C C2E"/>
    </vehicle>
    <vehicle id="c12" depart="121.96" type="car" departLane="free">
        <route edges="N2C C2W"/>
    </vehicle>
    <vehicle id="c13" depart="123.22" type="car" departLane="free">
        <route edges="E2W C2W"/>
    </vehicle>
    <vehicle id="c14" depart="135.35" type="car" departLane="free">
        <route edges="S2C C2N"/>
    </vehicle>
    <vehicle id="c15" depart="159.00" type="car" departLane="free">
        <route edges="N2C C2S"/>
    </vehicle>
    <vehicle id="c16" depart="162.36" type="car" departLane="free">
        <route edges="W2C C2E"/>
    </vehicle>
    <vehicle id="c17" depart="173.14" type="car" departLane="free">
        <route edges="S2C C2N"/>
    </vehicle>
    <vehicle id="c18" depart="185.74" type="car" departLane="free">
        <route edges="N2C C2S"/>
    </vehicle>
    <vehicle id="c19" depart="185.89" type="car" departLane="free">
        <route edges="N2C C2S"/>
    </vehicle>
    <vehicle id="c20" depart="189.66" type="car" departLane="free">
        <route edges="W2C C2E"/>
    </vehicle>
    <vehicle id="c21" depart="197.58" type="car" departLane="free">
        <route edges="E2W C2W"/>
    </vehicle>
    <vehicle id="c22" depart="200.35" type="car" departLane="free">
        <route edges="S2C C2N"/>
    </vehicle>
    <vehicle id="c23" depart="239.83" type="car" departLane="free">
        <route edges="E2W C2W"/>
    </vehicle>
    <vehicle id="c24" depart="241.83" type="car" departLane="free">
        <route edges="E2W C2W"/>
    </vehicle>
    <vehicle id="c25" depart="245.70" type="car" departLane="free">
        <route edges="E2W C2S"/>
    </vehicle>
    <vehicle id="c26" depart="248.12" type="car" departLane="free">
        <route edges="E2W C2W"/>
    </vehicle>
    <vehicle id="c27" depart="252.11" type="car" departLane="free">
        <route edges="W2C C2E"/>
    </vehicle>
    <vehicle id="c28" depart="271.81" type="car" departLane="free">
        <route edges="E2W C2N"/>
    </vehicle>
    <vehicle id="c29" depart="273.36" type="car" departLane="free">
        <route edges="E2W C2S"/>
    </vehicle>
    <vehicle id="c30" depart="278.36" type="car" departLane="free">
        <route edges="E2W C2W"/>
    </vehicle>
    <vehicle id="c31" depart="279.96" type="car" departLane="free">
        <route edges="E2W C2W"/>
    </vehicle>
    <vehicle id="c32" depart="312.14" type="car" departLane="free">
        <route edges="W2C C2E"/>
    </vehicle>
    <vehicle id="c33" depart="312.93" type="car" departLane="free">
        <route edges="N2C C2S"/>
    </vehicle>
    <vehicle id="c34" depart="314.24" type="car" departLane="free">
        <route edges="W2C C2E"/>
    </vehicle>
    <vehicle id="c35" depart="316.33" type="car" departLane="free">
        <route edges="N2C C2S"/>
    </vehicle>
    <vehicle id="c36" depart="316.40" type="car" departLane="free">
        <route edges="E2W C2N"/>
    </vehicle>
    <vehicle id="c37" depart="318.76" type="car" departLane="free">
        <route edges="W2C C2E"/>
    </vehicle>
    <vehicle id="c38" depart="325.21" type="car" departLane="free">
        <route edges="N2C C2S"/>
    </vehicle>
    <vehicle id="c39" depart="330.12" type="car" departLane="free">
        <route edges="N2C C2S"/>
    </vehicle>
    <vehicle id="c40" depart="362.86" type="car" departLane="free">
        <route edges="W2C C2E"/>
    </vehicle>
    <vehicle id="c41" depart="367.97" type="car" departLane="free">
        <route edges="E2W C2W"/>
    </vehicle>
    <vehicle id="c42" depart="370.50" type="car" departLane="free">
        <route edges="W2C C2E"/>
    </vehicle>
    <vehicle id="c43" depart="370.73" type="car" departLane="free">
        <route edges="E2W C2W"/>
    </vehicle>
    <vehicle id="c44" depart="371.14" type="car" departLane="free">
        <route edges="E2W C2W"/>
    </vehicle>
    <vehicle id="c45" depart="375.29" type="car" departLane="free">
        <route edges="W2C C2E"/>
    </vehicle>
    <vehicle id="c46" depart="383.68" type="car" departLane="free">
        <route edges="W2C C2E"/>
    </vehicle>
    <vehicle id="c47" depart="384.12" type="car" departLane="free">
        <route edges="S2C C2N"/>
    </vehicle>
    <vehicle id="c48" depart="394.08" type="car" departLane="free">
        <route edges="E2W C2W"/>
    </vehicle>
    <vehicle id="c49" depart="411.26" type="car" departLane="free">
        <route edges="E2W C2W"/>
    </vehicle>
    <vehicle id="c50" depart="411.36" type="car" departLane="free">
        <route edges="W2C C2N"/>
    </vehicle>
    <vehicle id="c51" depart="415.02" type="car" departLane="free">
        <route edges="S2C C2N"/>
    </vehicle>
    <vehicle id="c52" depart="420.11" type="car" departLane="free">
        <route edges="N2C C2S"/>
    </vehicle>
    <vehicle id="c53" depart="433.88" type="car" departLane="free">
        <route edges="N2C C2S"/>
    </vehicle>
    <vehicle id="c54" depart="442.00" type="car" departLane="free">
        <route edges="N2C C2S"/>
    </vehicle>
    <vehicle id="c55" depart="442.12" type="car" departLane="free">
        <route edges="W2C C2E"/>
    </vehicle>
    <vehicle id="c56" depart="447.98" type="car" departLane="free">
        <route edges="N2C C2S"/>
    </vehicle>
    <vehicle id="c57" depart="476.19" type="car" departLane="free">
        <route edges="N2C C2S"/>
    </vehicle>
    <vehicle id="c58" depart="486.00" type="car" departLane="free">
        <route edges="E2W C2W"/>
    </vehicle>
    <vehicle id="c59" depart="499.77" type="car" departLane="free">
        <route edges="N2C C2E"/>
    </vehicle>
    <vehicle id="c60" depart="500.82" type="car" departLane="free">
        <route edges="E2W C2W"/>
    </vehicle>
    <vehicle id="c61" depart="504.07" type="car" departLane="free">
        <route edges="S2C C2N"/>
    </vehicle>
    <vehicle id="c62" depart="507.89" type="car" departLane="free">
        <route edges="E2W C2S"/>
    </vehicle>
    <vehicle id="c63" depart="515.26" type="car" departLane="free">
        <route edges="S2C C2N"/>
    </vehicle>
    <vehicle id="c64" depart="556.82" type="car" departLane="free">
        <route edges="S2C C2N"/>
    </vehicle>
    <vehicle id="c65" depart="583.25" type="car" departLane="free">
        <route edges="S2C C2E"/>
    </vehicle>
    <vehicle id="c66" depart="595.85" type="car" departLane="free">
        <route edges="E2W C2S"/>
    </vehicle>
    <vehicle id="c67" depart="595.87" type="car" departLane="free">
        <route edges="S2C C2E"/>
    </vehicle>
    <vehicle id="c68" depart="600.23" type="car" departLane="free">
        <route edges="S2C C2N"/>
    </vehicle>
    <vehicle id="c69" depart="655.59" type="car" departLane="free">
        <route edges="W2C C2E"/>
    </vehicle>
    <vehicle id="c70" depart="663.74" type="car" departLane="free">
        <route edges="E2W C2W"/>
    </vehicle>
    <vehicle id="c71" depart="664.07" type="car" departLane="free">
        <route edges="S2C C2N"/>
    </vehicle>
    <vehicle id="c72" depart="667.70" type="car" departLane="free">
        <route edges="S2C C2N"/>
    </vehicle>
    <vehicle id="c73" depart="670.76" type="car" departLane="free">
        <route edges="S2C C2N"/>
    </vehicle>
    <vehicle id="c74" depart="671.06" type="car" departLane="free">
        <route edges="E2W C2W"/>
    </vehicle>
    <vehicle id="c75" depart="693.36" type="car" departLane="free">
        <route edges="S2C C2N"/>
    </vehicle>
    <vehicle id="c76" depart="706.01" type="car" departLane="free">
        <route edges="N2C C2S"/>
    </vehicle>
    <vehicle id="c77" depart="718.22" type="car" departLane="free">
        <route edges="E2W C2W"/>
    </vehicle>
    <vehicle id="c78" depart="726.23" type="car" departLane="free">
        <route edges="S2C C2N"/>
    </vehicle>
    <vehicle id="c79" depart="736.36" type="car" departLane="free">
        <route edges="N2C C2S"/>
    </vehicle>
    <vehicle id="c80" depart="738.01" type="car" departLane="free">
        <route edges="N2C C2S"/>
    </vehicle>
    <vehicle id="c81" depart="738.28" type="car" departLane="free">
        <route edges="N2C C2S"/>
    </vehicle>
    <vehicle id="c82" depart="740.09" type="car" departLane="free">
        <route edges="W2C C2E"/>
    </vehicle>
    <vehicle id="c83" depart="765.65" type="car" departLane="free">
        <route edges="W2C C2E"/>
    </vehicle>
    <vehicle id="c84" depart="784.88" type="car" departLane="free">
        <route edges="N2C C2S"/>
    </vehicle>
    <vehicle id="c85" depart="790.24" type="car" departLane="free">
        <route edges="E2W C2W"/>
    </vehicle>
    <vehicle id="c86" depart="792.35" type="car" departLane="free">
        <route edges="W2C C2E"/>
    </vehicle>
    <vehicle id="c87" depart="811.20" type="car" departLane="free">
        <route edges="E2W C2W"/>
    </vehicle>
    <vehicle id="c88" depart="818.46" type="car" departLane="free">
        <route edges="S2C C2N"/>
    </vehicle>
    <vehicle id="c89" depart="818.62" type="car" departLane="free">
        <route edges="N2C C2S"/>
    </vehicle>
    <vehicle id="c90" depart="824.49" type="car" departLane="free">
        <route edges="N2C C2S"/>
    </vehicle>
    <vehicle id="c91" depart="839.58" type="car" departLane="free">
        <route edges="W2C C2S"/>
    </vehicle>
    <vehicle id="c92" depart="848.49" type="car" departLane="free">
        <route edges="S2C C2N"/>
    </vehicle>
    <vehicle id="c93" depart="849.26" type="car" departLane="free">
        <route edges="S2C C2W W2C"/>
    </vehicle>
    <vehicle id="c94" depart="879.67" type="car" departLane="free">
        <route edges="S2C C2N"/>
    </vehicle>
    <vehicle id="c95" depart="893.62" type="car" departLane="free">
        <route edges="N2C C2S"/>
    </vehicle>
    <vehicle id="c96" depart="902.63" type="car" departLane="free">
        <route edges="W2C C2E"/>
    </vehicle>
    <vehicle id="c97" depart="914.00" type="car" departLane="free">
        <route edges="E2W C2S"/>
    </vehicle>
    <vehicle id="c98" depart="921.66" type="car" departLane="free">
        <route edges="S2C C2N"/>
    </vehicle>
    <vehicle id="c99" depart="932.34" type="car" departLane="free">
        <route edges="S2C C2N"/>
    </vehicle>
    <vehicle id="c100" depart="949.26" type="car" departLane="free">
        <route edges="N2C C2W"/>
    </vehicle>
    <vehicle id="c101" depart="959.39" type="car" departLane="free">
        <route edges="S2C C2N"/>
    </vehicle>
    <vehicle id="c102" depart="971.68" type="car" departLane="free">
        <route edges="S2C C2N"/>
    </vehicle>
    <vehicle id="c103" depart="978.07" type="car" departLane="free">
        <route edges="E2W C2W"/>
    </vehicle>
    <vehicle id="c104" depart="980.29" type="car" departLane="free">
        <route edges="W2C C2S"/>
    </vehicle>
    <vehicle id="c105" depart="998.16" type="car" departLane="free">
        <route edges="E2W C2W"/>
    </vehicle>
    <vehicle id="c106" depart="999.31" type="car" departLane="free">
        <route edges="E2W C2W"/>
    </vehicle>
    <vehicle id="c107" depart="1036.55" type="car" departLane="free">
        <route edges="N2C C2S"/>
    </vehicle>
    <vehicle id="c108" depart="1058.56" type="car" departLane="free">
        <route edges="E2W C2W"/>
    </vehicle>
    <vehicle id="c109" depart="1069.21" type="car" departLane="free">
        <route edges="E2W C2W"/>
    </vehicle>
    <vehicle id="c110" depart="1078.55" type="car" departLane="free">
        <route edges="N2C C2S"/>
    </vehicle>
    <vehicle id="c111" depart="1115.77" type="car" departLane="free">
        <route edges="S2C C2N"/>
    </vehicle>
    <vehicle id="c112" depart="1121.20" type="car" departLane="free">
        <route edges="E2W C2W"/>
    </vehicle>
    <vehicle id="c113" depart="1121.30" type="car" departLane="free">
        <route edges="N2C C2W"/>
    </vehicle>
    <vehicle id="c114" depart="1126.28" type="car" departLane="free">
        <route edges="E2W C2W"/>
    </vehicle>
    <vehicle id="c115" depart="1132.55" type="car" departLane="free">
        <route edges="W2C C2S"/>
    </vehicle>
    <vehicle id="c116" depart="1138.31" type="car" departLane="free">
        <route edges="E2W C2W"/>
    </vehicle>
    <vehicle id="c117" depart="1154.31" type="car" departLane="free">
        <route edges="N2C C2S"/>
    </vehicle>
    <vehicle id="c118" depart="1166.36" type="car" departLane="free">
        <route edges="N2C C2W"/>
    </vehicle>
    <vehicle id="c119" depart="1189.25" type="car" departLane="free">
        <route edges="E2W C2W"/>
    </vehicle>
    <vehicle id="c120" depart="1195.73" type="car" departLane="free">
        <route edges="E2W C2W"/>
    </vehicle>
    <vehicle id="c121" depart="1198.14" type="car" departLane="free">
        <route edges="E2W C2W"/>
    </vehicle>
    <vehicle id="c122" depart="1203.71" type="car" departLane="free">
        <route edges="S2C C2N"/>
    </vehicle>
    <vehicle id="c123" depart="1209.12" type="car" departLane="free">
        <route edges="E2W C2W"/>
    </vehicle>
    <vehicle id="c124" depart="1210.93" type="car" departLane="free">
        <route edges="E2W C2W"/>
    </vehicle>
    <vehicle id="c125" depart="1214.81" type="car" departLane="free">
        <route edges="E2W C2W"/>
    </vehicle>
    <vehicle id="c126" depart="1221.38" type="car" departLane="free">
        <route edges="N2C C2S"/>
    </vehicle>
    <vehicle id="c127" depart="1233.09" type="car" departLane="free">
        <route edges="W2C C2E"/>
    </vehicle>
    <vehicle id="c128" depart="1234.54" type="car" departLane="free">
        <route edges="E2W C2W"/>
    </vehicle>
    <vehicle id="c129" depart="1239.78" type="car" departLane="free">
        <route edges="S2C C2N"/>
    </vehicle>
    <vehicle id="c130" depart="1242.69" type="car" departLane="free">
        <route edges="N2C C2S"/>
    </vehicle>
    <vehicle id="c131" depart="1257.79" type="car" departLane="free">
        <route edges="E2W C2W"/>
    </vehicle>
    <vehicle id="c132" depart="1265.54" type="car" departLane="free">
        <route edges="S2C C2N"/>
    </vehicle>
    <vehicle id="c133" depart="1273.94" type="car" departLane="free">
        <route edges="S2C C2N"/>
    </vehicle>
    <vehicle id="c134" depart="1278.38" type="car" departLane="free">
        <route edges="N2C C2S"/>
    </vehicle>
    <vehicle id="c135" depart="1279.30" type="car" departLane="free">
        <route edges="S2C C2N"/>
    </vehicle>
    <vehicle id="c136" depart="1305.93" type="car" departLane="free">
        <route edges="E2W C2W"/>
    </vehicle>
    <vehicle id="c137" depart="1307.01" type="car" departLane="free">
        <route edges="E2W C2W"/>
    </vehicle>
    <vehicle id="c138" depart="1312.91" type="car" departLane="free">
        <route edges="N2C C2E"/>
    </vehicle>
    <vehicle id="c139" depart="1315.28" type="car" departLane="free">
        <route edges="W2C C2E"/>
    </vehicle>
    <vehicle id="c140" depart="1329.23" type="car" departLane="free">
        <route edges="S2C C2E"/>
    </vehicle>
    <vehicle id="c141" depart="1347.97" type="car" departLane="free">
        <route edges="E2W C2W"/>
    </vehicle>
    <vehicle id="c142" depart="1359.81" type="car" departLane="free">
        <route edges="N2C C2S"/>
    </vehicle>
    <vehicle id="c143" depart="1363.58" type="car" departLane="free">
        <route edges="N2C C2S"/>
    </vehicle>
    <vehicle id="c144" depart="1363.76" type="car" departLane="free">
        <route edges="E2W C2W"/>
    </vehicle>
    <vehicle id="c145" depart="1365.22" type="car" departLane="free">
        <route edges="E2W C2S"/>
    </vehicle>
    <vehicle id="c146" depart="1365.50" type="car" departLane="free">
        <route edges="E2W C2W"/>
    </vehicle>
    <vehicle id="c147" depart="1382.27" type="car" departLane="free">
        <route edges="W2C C2E"/>
    </vehicle>
    <vehicle id="c148" depart="1409.34" type="car" departLane="free">
        <route edges="E2W C2W"/>
    </vehicle>
    <vehicle id="c149" depart="1409.87" type="car" departLane="free">
        <route edges="S2C C2N"/>
    </vehicle>
    <vehicle id="c150" depart="1427.94" type="car" departLane="free">
        <route edges="E2W C2W"/>
    </vehicle>
    <vehicle id="c151" depart="1430.35" type="car" departLane="free">
        <route edges="E2W C2W"/>
    </vehicle>
    <vehicle id="c152" depart="1433.83" type="car" departLane="free">
        <route edges="N2C C2S"/>
    </vehicle>
    <vehicle id="c153" depart="1449.18" type="car" departLane="free">
        <route edges="N2C C2S"/>
    </vehicle>
    <vehicle id="c154" depart="1455.77" type="car" departLane="free">
        <route edges="E2W C2W"/>
    </vehicle>
    <vehicle id="c155" depart="1456.15" type="car" departLane="free">
        <route edges="W2C C2E"/>
    </vehicle>
    <vehicle id="c156" depart="1458.89" type="car" departLane="free">
        <route edges="W2C C2E"/>
    </vehicle>
    <vehicle id="c157" depart="1463.01" type="car" departLane="free">
        <route edges="N2C C2S"/>
    </vehicle>
    <vehicle id="c158" depart="1468.74" type="car" departLane="free">
        <route edges="W2C C2S"/>
    </vehicle>
    <vehicle id="c159" depart="1470.67" type="car" departLane="free">
        <route edges="S2C C2N"/>
    </vehicle>
    <vehicle id="c160" depart="1472.24" type="car" departLane="free">
        <route edges="W2C C2E"/>
    </vehicle>
    <vehicle id="c161" depart="1486.06" type="car" departLane="free">
        <route edges="E2W C2N"/>
    </vehicle>
    <vehicle id="c162" depart="1492.22" type="car" departLane="free">
        <route edges="E2W C2W"/>
    </vehicle>
    <vehicle id="c163" depart="1503.02" type="car" departLane="free">
        <route edges="N2C C2S"/>
    </vehicle>
    <vehicle id="c164" depart="1518.13" type="car" departLane="free">
        <route edges="E2W C2W"/>
    </vehicle>
    <vehicle id="c165" depart="1518.35" type="car" departLane="free">
        <route edges="S2C C2N"/>
    </vehicle>
    <vehicle id="c166" depart="1519.33" type="car" departLane="free">
        <route edges="W2C C2E"/>
    </vehicle>
    <vehicle id="c167" depart="1524.95" type="car" departLane="free">
        <route edges="E2W C2W"/>
    </vehicle>
    <vehicle id="c168" depart="1536.44" type="car" departLane="free">
        <route edges="W2C C2E"/>
    </vehicle>
    <vehicle id="c169" depart="1536.54" type="car" departLane="free">
        <route edges="E2W C2S"/>
    </vehicle>
    <vehicle id="c170" depart="1553.50" type="car" departLane="free">
        <route edges="E2W C2W"/>
    </vehicle>
    <vehicle id="c171" depart="1573.90" type="car" departLane="free">
        <route edges="W2C C2N"/>
    </vehicle>
    <vehicle id="c172" depart="1579.48" type="car" departLane="free">
        <route edges="E2W C2W"/>
    </vehicle>
    <vehicle id="c173" depart="1587.72" type="car" departLane="free">
        <route edges="E2W C2S"/>
    </vehicle>
    <vehicle id="c174" depart="1627.01" type="car" departLane="free">
        <route edges="E2W C2W"/>
    </vehicle>
    <vehicle id="c175" depart="1635.36" type="car" departLane="free">
        <route edges="E2W C2N"/>
    </vehicle>
    <vehicle id="c176" depart="1638.52" type="car" departLane="free">
        <route edges="N2C C2S"/>
    </vehicle>
    <vehicle id="c177" depart="1645.20" type="car" departLane="free">
        <route edges="W2C C2E"/>
    </vehicle>
    <vehicle id="c178" depart="1652.36" type="car" departLane="free">
        <route edges="N2C C2S"/>
    </vehicle>
    <vehicle id="c179" depart="1654.85" type="car" departLane="free">
        <route edges="W2C C2E"/>
    </vehicle>
    <vehicle id="c180" depart="1662.99" type="car" departLane="free">
        <route edges="E2W C2W"/>
    </vehicle>
    <vehicle id="c181" depart="1676.52" type="car" departLane="free">
        <route edges="S2C C2N"/>
    </vehicle>
    <vehicle id="c182" depart="1682.32" type="car" departLane="free">
        <route edges="S2C C2N"/>
    </vehicle>
    <vehicle id="c183" depart="1685.63" type="car" departLane="free">
        <route edges="E2W C2S"/>
    </vehicle>
    <vehicle id="c184" depart="1695.84" type="car" departLane="free">
        <route edges="E2W C2W"/>
    </vehicle>
    <vehicle id="c185" depart="1703.40" type="car" departLane="free">
        <route edges="W2C C2E"/>
    </vehicle>
    <vehicle id="c186" depart="1703.56" type="car" departLane="free">
        <route edges="N2C C2E"/>
    </vehicle>
    <vehicle id="c187" depart="1706.29" type="car" departLane="free">
        <route edges="N2C C2S"/>
    </vehicle>
    <vehicle id="c188" depart="1707.25" type="car" departLane="free">
        <route edges="W2C C2E"/>
    </vehicle>
    <vehicle id="c189" depart="1715.83" type="car" departLane="free">
        <route edges="E2W C2W"/>
    </vehicle>
    <vehicle id="c190" depart="1726.50" type="car" departLane="free">
        <route edges="N2C C2W"/>
    </vehicle>
    <vehicle id="c191" depart="1727.21" type="car" departLane="free">
        <route edges="W2C C2E"/>
    </vehicle>
    <vehicle id="c192" depart="1731.01" type="car" departLane="free">
        <route edges="E2W C2W"/>
    </vehicle>
    <vehicle id="c193" depart="1731.82" type="car" departLane="free">
        <route edges="S2C C2E"/>
    </vehicle>
    <vehicle id="c194" depart="1731.92" type="car" departLane="free">
        <route edges="N2C C2E"/>
    </vehicle>
    <vehicle id="c195" depart="1741.52" type="car" departLane="free">
        <route edges="N2C C2E"/>
    </vehicle>
    <vehicle id="c196" depart="1745.20" type="car" departLane="free">
        <route edges="W2C C2E"/>
    </vehicle>
    <vehicle id="c197" depart="1750.89" type="car" departLane="free">
        <route edges="W2C C2E"/>
    </vehicle>
    <vehicle id="c198" depart="1756.12" type="car" departLane="free">
        <route edges="N2C C2E"/>
    </vehicle>
    <vehicle id="c199" depart="1766.70" type="car" departLane="free">
        <route edges="W2C C2E"/>
    </vehicle>
    <vehicle id="c200" depart="1778.33" type="car" departLane="free">
        <route edges="E2W C2W"/>
    </vehicle>
    <vehicle id="c201" depart="1779.39" type="car" departLane="free">
        <route edges="W2C C2E"/>
    </vehicle>
    <vehicle id="c202" depart="1783.53" type="car" departLane="free">
        <route edges="E2W C2S"/>
    </vehicle>
    <vehicle id="c203" depart="1789.24" type="car" departLane="free">
        <route edges="W2C C2E"/>
    </vehicle>
    <vehicle id="c204" depart="1790.87" type="car" departLane="free">
        <route edges="E2W C2W"/>
    </vehicle>
    <vehicle id="c205" depart="1793.13" type="car" departLane="free">
        <route edges="S2C C2N"/>
    </vehicle>
    <vehicle id="c206" depart="1793.69" type="car" departLane="free">
        <route edges="W2C C2E"/>
    </vehicle>
    <vehicle id="c207" depart="1808.24" type="car" departLane="free">
        <route edges="W2C C2E"/>
    </vehicle>
    <vehicle id="c208" depart="1819.83" type="car" departLane="free">
        <route edges="W2C C2E"/>
    </vehicle>
    <vehicle id="c209" depart="1821.97" type="car" departLane="free">
        <route edges="E2W C2W"/>
    </vehicle>
    <vehicle id="c210" depart="1844.85" type="car" departLane="free">
        <route edges="W2C C2S"/>
    </vehicle>
    <vehicle id="c211" depart="1854.63" type="car" departLane="free">
        <route edges="E2W C2N"/>
    </vehicle>
    <vehicle id="c212" depart="1872.61" type="car" departLane="free">
        <route edges="N2C C2S"/>
    </vehicle>
    <vehicle id="c213" depart="1876.68" type="car" departLane="free">
        <route edges="N2C C2E"/>
    </vehicle>
    <vehicle id="c214" depart="1880.76" type="car" departLane="free">
        <route edges="W2C C2E"/>
    </vehicle>
    <vehicle id="c215" depart="1881.07" type="car" departLane="free">
        <route edges="W2C C2N"/>
    </vehicle>
    <vehicle id="c216" depart="1895.68" type="car" departLane="free">
        <route edges="E2W C2W"/>
    </vehicle>
    <vehicle id="c217" depart="1899.53" type="car" departLane="free">
        <route edges="N2C C2S"/>
    </vehicle>
    <vehicle id="c218" depart="1906.78" type="car" departLane="free">
        <route edges="W2C C2E"/>
    </vehicle>
    <vehicle id="c219" depart="1907.42" type="car" departLane="free">
        <route edges="S2C C2N"/>
    </vehicle>
    <vehicle id="c220" depart="1908.95" type="car" departLane="free">
        <route edges="W2C C2E"/>
    </vehicle>
    <vehicle id="c221" depart="1914.69" type="car" departLane="free">
        <route edges="N2C C2S"/>
    </vehicle>
    <vehicle id="c222" depart="1924.04" type="car" departLane="free">
        <route edges="W2C C2N"/>
    </vehicle>
    <vehicle id="c223" depart="1926.13" type="car" departLane="free">
        <route edges="S2C C2N"/>
    </vehicle>
    <vehicle id="c224" depart="1926.25" type="car" departLane="free">
        <route edges="S2C C2N"/>
    </vehicle>
    <vehicle id="c225" depart="1927.21" type="car" departLane="free">
        <route edges="E2W C2N"/>
    </vehicle>
    <vehicle id="c226" depart="1931.33" type="car" departLane="free">
        <route edges="W2C C2E"/>
    </vehicle>
    <vehicle id="c227" depart="1938.25" type="car" departLane="free">
        <route edges="E2W C2W"/>
    </vehicle>
    <vehicle id="c228" depart="1943.21" type="car" departLane="free">
        <route edges="W2C C2E"/>
    </vehicle>
    <vehicle id="c229" depart="1943.43" type="car" departLane="free">
        <route edges="N2C C2W"/>
    </vehicle>
    <vehicle id="c230" depart="1943.50" type="car" departLane="free">
        <route edges="N2C C2E"/>
    </vehicle>
    <vehicle id="c231" depart="1954.26" type="car" departLane="free">
        <route edges="E2W C2W"/>
    </vehicle>
    <vehicle id="c232" depart="1974.97" type="car" departLane="free">
        <route edges="E2W C2N"/>
    </vehicle>
    <vehicle id="c233" depart="1976.12" type="car" departLane="free">
        <route edges="E2W C2W"/>
    </vehicle>
    <vehicle id="c234" depart="1986.20" type="car" departLane="free">
        <route edges="W2C C2E"/>
    </vehicle>
    <vehicle id="c235" depart="2000.90" type="car" departLane="free">
        <route edges="W2C C2E"/>
    </vehicle>
    <vehicle id="c236" depart="2004.20" type="car" departLane="free">
        <route edges="S2C C2N"/>
    </vehicle>
    <vehicle id="c237" depart="2006.30" type="car" departLane="free">
        <route edges="W2C C2N"/>
    </vehicle>
    <vehicle id="c238" depart="2007.87" type="car" departLane="free">
        <route edges="E2W C2S"/>
    </vehicle>
    <vehicle id="c239" depart="2018.44" type="car" departLane="free">
        <route edges="W2C C2N"/>
    </vehicle>
    <vehicle id="c240" depart="2032.05" type="car" departLane="free">
        <route edges="W2C C2S"/>
    </vehicle>
    <vehicle id="c241" depart="2035.83" type="car" departLane="free">
        <route edges="W2C C2E"/>
    </vehicle>
    <vehicle id="c242" depart="2036.80" type="car" departLane="free">
        <route edges="N2C C2S"/>
    </vehicle>
    <vehicle id="c243" depart="2050.00" type="car" departLane="free">
        <route edges="N2C C2S"/>
    </vehicle>
    <vehicle id="c244" depart="2060.74" type="car" departLane="free">
        <route edges="N2C C2S"/>
    </vehicle>
    <vehicle id="c245" depart="2063.34" type="car" departLane="free">
        <route edges="E2W C2W"/>
    </vehicle>
    <vehicle id="c246" depart="2063.86" type="car" departLane="free">
        <route edges="E2W C2W"/>
    </vehicle>
    <vehicle id="c247" depart="2073.59" type="car" departLane="free">
        <route edges="E2W C2W"/>
    </vehicle>
    <vehicle id="c248" depart="2078.95" type="car" departLane="free">
        <route edges="W2C C2N"/>
    </vehicle>
    <vehicle id="c249" depart="2079.48" type="car" departLane="free">
        <route edges="E2W C2W"/>
    </vehicle>
    <vehicle id="c250" depart="2090.73" type="car" departLane="free">
        <route edges="S2C C2N"/>