<?xml version="1.0" encoding="UTF-8"?>


<routes xmlns:xsi="http://www.w3.org/2001/XMLSchema-instance" xsi:noNamespaceSchemaLocation="http://sumo.dlr.de/xsd/routes_file.xsd">
<!-- begin="0.0" end="3600.0" -->
    <vehicle id="c0" depart="0.48" type = "car" departLane="free" departPos="random">
        <route edges="S2C C2N"/>
    </vehicle>
    <vehicle id="c1" depart="4.87" type = "car" departLane="free" departPos="random">
        <route edges="N2C C2S"/>
    </vehicle>
    <vehicle id="c2" depart="5.63" type = "car" departLane="free" departPos="random">
        <route edges="N2C C2W"/>
    </vehicle>
    <vehicle id="c3" depart="11.59" type = "car" departLane="free" departPos="random">
        <route edges="N2C C2S"/>
    </vehicle>
    <vehicle id="c4" depart="13.75" type = "car" departLane="free" departPos="random">
        <route edges="S2C C2N"/>
    </vehicle>
    <vehicle id="c5" depart="15.71" type = "car" departLane="free" departPos="random">
        <route edges="S2C C2N"/>
    </vehicle>
    <vehicle id="c6" depart="18.83" type = "car" departLane="free" departPos="random">
        <route edges="S2C C2N"/>
    </vehicle>
    <vehicle id="c7" depart="19.82" type = "car" departLane="free" departPos="random">
        <route edges="W2C C2E"/>
    </vehicle>
    <vehicle id="c8" depart="27.59" type = "car" departLane="free" departPos="random">
        <route edges="S2C C2N"/>
    </vehicle>
    <vehicle id="c9" depart="28.23" type = "car" departLane="free" departPos="random">
        <route edges="N2C C2S"/>
    </vehicle>
    <vehicle id="c10" depart="31.91" type = "car" departLane="free" departPos="random">
        <route edges="N2C C2S"/>
    </vehicle>
    <vehicle id="c11" depart="32.54" type = "car" departLane="free" departPos="random">
        <route edges="S2C C2N"/>
    </vehicle>
    <vehicle id="c12" depart="33.59" type = "car" departLane="free" departPos="random">
        <route edges="N2C C2E"/>
    </vehicle>
    <vehicle id="c13" depart="35.73" type = "car" departLane="free" departPos="random">
        <route edges="W2C C2E"/>
    </vehicle>
    <vehicle id="c14" depart="36.47" type = "car" departLane="free" departPos="random">
        <route edges="N2C C2S"/>
    </vehicle>
    <vehicle id="c15" depart="39.71" type = "car" departLane="free" departPos="random">
        <route edges="W2C C2E"/>
    </vehicle>
    <vehicle id="c16" depart="42.14" type = "car" departLane="free" departPos="random">
        <route edges="N2C C2S"/>
    </vehicle>
    <vehicle id="c17" depart="43.57" type = "car" departLane="free" departPos="random">
        <route edges="N2C C2S"/>
    </vehicle>
    <vehicle id="c18" depart="43.59" type = "car" departLane="free" departPos="random">
        <route edges="N2C C2S"/>
    </vehicle>
    <vehicle id="c19" depart="43.63" type = "car" departLane="free" departPos="random">
        <route edges="E2W C2W"/>
    </vehicle>
    <vehicle id="c20" depart="44.65" type = "car" departLane="free" departPos="random">
        <route edges="W2C C2E"/>
    </vehicle>
    <vehicle id="c21" depart="45.39" type = "car" departLane="free" departPos="random">
        <route edges="N2C C2S"/>
    </vehicle>
    <vehicle id="c22" depart="51.53" type = "car" departLane="free" departPos="random">
        <route edges="S2C C2N"/>
    </vehicle>
    <vehicle id="c23" depart="52.90" type = "car" departLane="free" departPos="random">
        <route edges="N2C C2S"/>
    </vehicle>
    <vehicle id="c24" depart="61.01" type = "car" departLane="free" departPos="random">
        <route edges="E2W C2W"/>
    </vehicle>
    <vehicle id="c25" depart="63.19" type = "car" departLane="free" departPos="random">
        <route edges="W2C C2E"/>
    </vehicle>
    <vehicle id="c26" depart="64.82" type = "car" departLane="free" departPos="random">
        <route edges="N2C C2S"/>
    </vehicle>
    <vehicle id="c27" depart="68.82" type = "car" departLane="free" departPos="random">
        <route edges="N2C C2S"/>
    </vehicle>
    <vehicle id="c28" depart="69.09" type = "car" departLane="free" departPos="random">
        <route edges="N2C C2S"/>
    </vehicle>
    <vehicle id="c29" depart="69.58" type = "car" departLane="free" departPos="random">
        <route edges="E2W C2W"/>
    </vehicle>
    <vehicle id="c30" depart="75.40" type = "car" departLane="free" departPos="random">
        <route edges="S2C C2E"/>
    </vehicle>
    <vehicle id="c31" depart="78.56" type = "car" departLane="free" departPos="random">
        <route edges="S2C C2N"/>
    </vehicle>
    <vehicle id="c32" depart="84.07" type = "car" departLane="free" departPos="random">
        <route edges="W2C C2E"/>
    </vehicle>
    <vehicle id="c33" depart="84.94" type = "car" departLane="free" departPos="random">
        <route edges="W2C C2E"/>
    </vehicle>
    <vehicle id="c34" depart="87.09" type = "car" departLane="free" departPos="random">
        <route edges="W2C C2E"/>
    </vehicle>
    <vehicle id="c35" depart="91.61" type = "car" departLane="free" departPos="random">
        <route edges="W2C C2E"/>
    </vehicle>
    <vehicle id="c36" depart="94.31" type = "car" departLane="free" departPos="random">
        <route edges="N2C C2S"/>
    </vehicle>
    <vehicle id="c37" depart="97.80" type = "car" departLane="free" departPos="random">
        <route edges="E2W C2W"/>
    </vehicle>
    <vehicle id="c38" depart="99.13" type = "car" departLane="free" departPos="random">
        <route edges="W2C C2S"/>
    </vehicle>
    <vehicle id="c39" depart="105.01" type = "car" departLane="free" departPos="random">
        <route edges="E2W C2W"/>
    </vehicle>
    <vehicle id="c40" depart="111.44" type = "car" departLane="free" departPos="random">
        <route edges="N2C C2S"/>
    </vehicle>
    <vehicle id="c41" depart="119.48" type = "car" departLane="free" departPos="random">
        <route edges="E2W C2W"/>
    </vehicle>
    <vehicle id="c42" depart="121.01" type = "car" departLane="free" departPos="random">
        <route edges="N2C C2S"/>
    </vehicle>
    <vehicle id="c43" depart="124.81" type = "car" departLane="free" departPos="random">
        <route edges="W2C C2E"/>
    </vehicle>
    <vehicle id="c44" depart="127.12" type = "car" departLane="free" departPos="random">
        <route edges="N2C C2E"/>
    </vehicle>
    <vehicle id="c45" depart="129.67" type = "car" departLane="free" departPos="random">
        <route edges="N2C C2S"/>
    </vehicle>
    <vehicle id="c46" depart="132.20" type = "car" departLane="free" departPos="random">
        <route edges="W2C C2E"/>
    </vehicle>
    <vehicle id="c47" depart="138.33" type = "car" departLane="free" departPos="random">
        <route edges="N2C C2E"/>
    </vehicle>
    <vehicle id="c48" depart="140.15" type = "car" departLane="free" departPos="random">
        <route edges="E2W C2W"/>
    </vehicle>
    <vehicle id="c49" depart="140.39" type = "car" departLane="free" departPos="random">
        <route edges="W2C C2E"/>
    </vehicle>
    <vehicle id="c50" depart="142.05" type = "car" departLane="free" departPos="random">
        <route edges="W2C C2E"/>
    </vehicle>
    <vehicle id="c51" depart="150.02" type = "car" departLane="free" departPos="random">
        <route edges="E2W C2W"/>
    </vehicle>
    <vehicle id="c52" depart="151.02" type = "car" departLane="free" departPos="random">
        <route edges="W2C C2S"/>
    </vehicle>
    <vehicle id="c53" depart="151.29" type = "car" departLane="free" departPos="random">
        <route edges="W2C C2E"/>
    </vehicle>
    <vehicle id="c54" depart="155.43" type = "car" departLane="free" departPos="random">
        <route edges="W2C C2E"/>
    </vehicle>
    <vehicle id="c55" depart="157.46" type = "car" departLane="free" departPos="random">
        <route edges="N2C C2S"/>
    </vehicle>
    <vehicle id="c56" depart="158.04" type = "car" departLane="free" departPos="random">
        <route edges="W2C C2S"/>
    </vehicle>
    <vehicle id="c57" depart="161.68" type = "car" departLane="free" departPos="random">
        <route edges="W2C C2E"/>
    </vehicle>
    <vehicle id="c58" depart="164.34" type = "car" departLane="free" departPos="random">
        <route edges="E2W C2W"/>
    </vehicle>
    <vehicle id="c59" depart="168.67" type = "car" departLane="free" departPos="random">
        <route edges="W2C C2E"/>
    </vehicle>
    <vehicle id="c60" depart="173.31" type = "car" departLane="free" departPos="random">
        <route edges="N2C C2S"/>
    </vehicle>
    <vehicle id="c61" depart="173.47" type = "car" departLane="free" departPos="random">
        <route edges="N2C C2E"/>
    </vehicle>
    <vehicle id="c62" depart="179.92" type = "car" departLane="free" departPos="random">
        <route edges="N2C C2S"/>
    </vehicle>
    <vehicle id="c63" depart="180.81" type = "car" departLane="free" departPos="random">
        <route edges="E2W C2W"/>
    </vehicle>
    <vehicle id="c64" depart="184.09" type = "car" departLane="free" departPos="random">
        <route edges="N2C C2S"/>
    </vehicle>
    <vehicle id="c65" depart="187.04" type = "car" departLane="free" departPos="random">
        <route edges="N2C C2E"/>
    </vehicle>
    <vehicle id="c66" depart="188.13" type = "car" departLane="free" departPos="random">
        <route edges="N2C C2W"/>
    </vehicle>
    <vehicle id="c67" depart="188.48" type = "car" departLane="free" departPos="random">
        <route edges="S2C C2N"/>
    </vehicle>
    <vehicle id="c68" depart="195.60" type = "car" departLane="free" departPos="random">
        <route edges="E2W C2W"/>
    </vehicle>
    <vehicle id="c69" depart="205.40" type = "car" departLane="free" departPos="random">
        <route edges="S2C C2N"/>
    </vehicle>
    <vehicle id="c70" depart="207.53" type = "car" departLane="free" departPos="random">
        <route edges="W2C C2E"/>
    </vehicle>
    <vehicle id="c71" depart="208.24" type = "car" departLane="free" departPos="random">
        <route edges="E2W C2W"/>
    </vehicle>
    <vehicle id="c72" depart="209.13" type = "car" departLane="free" departPos="random">
        <route edges="N2C C2S"/>
    </vehicle>
    <vehicle id="c73" depart="210.78" type = "car" departLane="free" departPos="random">
        <route edges="N2C C2S"/>
    </vehicle>
    <vehicle id="c74" depart="214.29" type = "car" departLane="free" departPos="random">
        <route edges="S2C C2N"/>
    </vehicle>
    <vehicle id="c75" depart="223.93" type = "car" departLane="free" departPos="random">
        <route edges="N2C C2S"/>
    </vehicle>
    <vehicle id="c76" depart="224.18" type = "car" departLane="free" departPos="random">
        <route edges="N2C C2S"/>
    </vehicle>
    <vehicle id="c77" depart="224.25" type = "car" departLane="free" departPos="random">
        <route edges="N2C C2S"/>
    </vehicle>
    <vehicle id="c78" depart="224.85" type = "car" departLane="free" departPos="random">
        <route edges="N2C C2S"/>
    </vehicle>
    <vehicle id="c79" depart="225.55" type = "car" departLane="free" departPos="random">
        <route edges="N2C C2S"/>
    </vehicle>
    <vehicle id="c80" depart="225.68" type = "car" departLane="free" departPos="random">
        <route edges="S2C C2N"/>
    </vehicle>
    <vehicle id="c81" depart="229.11" type = "car" departLane="free" departPos="random">
        <route edges="E2W C2N"/>
    </vehicle>
    <vehicle id="c82" depart="233.47" type = "car" departLane="free" departPos="random">
        <route edges="W2C C2N"/>
    </vehicle>
    <vehicle id="c83" depart="234.74" type = "car" departLane="free" departPos="random">
        <route edges="S2C C2E"/>
    </vehicle>
    <vehicle id="c84" depart="235.32" type = "car" departLane="free" departPos="random">
        <route edges="W2C C2E"/>
    </vehicle>
    <vehicle id="c85" depart="236.50" type = "car" departLane="free" departPos="random">
        <route edges="N2C C2W"/>
    </vehicle>
    <vehicle id="c86" depart="237.64" type = "car" departLane="free" departPos="random">
        <route edges="W2C C2N"/>
    </vehicle>
    <vehicle id="c87" depart="239.20" type = "car" departLane="free" departPos="random">
        <route edges="W2C C2E"/>
    </vehicle>
    <vehicle id="c88" depart="239.95" type = "car" departLane="free" departPos="random">
        <route edges="N2C C2S"/>
    </vehicle>
    <vehicle id="c89" depart="243.61" type = "car" departLane="free" departPos="random">
        <route edges="N2C C2S"/>
    </vehicle>
    <vehicle id="c90" depart="248.25" type = "car" departLane="free" departPos="random">
        <route edges="W2C C2S"/>
    </vehicle>
    <vehicle id="c91" depart="248.43" type = "car" departLane="free" departPos="random">
        <route edges="W2C C2N"/>
    </vehicle>
    <vehicle id="c92" depart="250.71" type = "car" departLane="free" departPos="random">
        <route edges="S2C C2N"/>
    </vehicle>
    <vehicle id="c93" depart="255.36" type = "car" departLane="free" departPos="random">
        <route edges="W2C C2N"/>
    </vehicle>
    <vehicle id="c94" depart="255.63" type = "car" departLane="free" departPos="random">
        <route edges="W2C C2E"/>
    </vehicle>
    <vehicle id="c95" depart="256.17" type = "car" departLane="free" departPos="random">
        <route edges="N2C C2E"/>
    </vehicle>
    <vehicle id="c96" depart="256.52" type = "car" departLane="free" departPos="random">
        <route edges="W2C C2N"/>
    </vehicle>
    <vehicle id="c97" depart="258.16" type = "car" departLane="free" departPos="random">
        <route edges="W2C C2S"/>
    </vehicle>
    <vehicle id="c98" depart="258.39" type = "car" departLane="free" departPos="random">
        <route edges="S2C C2E"/>
    </vehicle>
    <vehicle id="c99" depart="259.50" type = "car" departLane="free" departPos="random">
        <route edges="N2C C2S"/>
    </vehicle>
    <vehicle id="c100" depart="260.34" type = "car" departLane="free" departPos="random">
        <route edges="N2C C2S"/>
    </vehicle>
    <vehicle id="c101" depart="262.45" type = "car" departLane="free" departPos="random">
        <route edges="W2C C2S"/>
    </vehicle>
    <vehicle id="c102" depart="263.09" type = "car" departLane="free" departPos="random">
        <route edges="S2C C2W W2C"/>
    </vehicle>
    <vehicle id="c103" depart="272.18" type = "car" departLane="free" departPos="random">
        <route edges="N2C C2S"/>
    </vehicle>
    <vehicle id="c104" depart="274.46" type = "car" departLane="free" departPos="random">
        <route edges="W2C C2E"/>
    </vehicle>
    <vehicle id="c105" depart="276.70" type = "car" departLane="free" departPos="random">
        <route edges="S2C C2N"/>
    </vehicle>
    <vehicle id="c106" depart="277.41" type = "car" departLane="free" departPos="random">
        <route edges="N2C C2S"/>
    </vehicle>
    <vehicle id="c107" depart="279.54" type = "car" departLane="free" departPos="random">
        <route edges="S2C C2E"/>
    </vehicle>
    <vehicle id="c108" depart="284.29" type = "car" departLane="free" departPos="random">
        <route edges="S2C C2N"/>
    </vehicle>
    <vehicle id="c109" depart="285.86" type = "car" departLane="free" departPos="random">
        <route edges="W2C C2E"/>
    </vehicle>
    <vehicle id="c110" depart="288.65" type = "car" departLane="free" departPos="random">
        <route edges="W2C C2N"/>
    </vehicle>
    <vehicle id="c111" depart="290.17" type = "car" departLane="free" departPos="random">
        <route edges="E2W C2W"/>
    </vehicle>
    <vehicle id="c112" depart="294.21" type = "car" departLane="free" departPos="random">
        <route edges="N2C C2W"/>
    </vehicle>
    <vehicle id="c113" depart="295.82" type = "car" departLane="free" departPos="random">
        <route edges="N2C C2S"/>
    </vehicle>
    <vehicle id="c114" depart="300.47" type = "car" departLane="free" departPos="random">
        <route edges="N2C C2W"/>
    </vehicle>
    <vehicle id="c115" depart="305.25" type = "car" departLane="free" departPos="random">
        <route edges="N2C C2S"/>
    </vehicle>
    <vehicle id="c116" depart="313.53" type = "car" departLane="free" departPos="random">
        <route edges="S2C C2N"/>
    </vehicle>
    <vehicle id="c117" depart="318.96" type = "car" departLane="free" departPos="random">
        <route edges="N2C C2S"/>
    </vehicle>
    <vehicle id="c118" depart="318.98" type = "car" departLane="free" departPos="random">
        <route edges="S2C C2N"/>
    </vehicle>
    <vehicle id="c119" depart="321.44" type = "car" departLane="free" departPos="random">
        <route edges="S2C C2N"/>
    </vehicle>
    <vehicle id="c120" depart="334.77" type = "car" departLane="free" departPos="random">
        <route edges="S2C C2W W2C"/>
    </vehicle>
    <vehicle id="c121" depart="337.89" type = "car" departLane="free" departPos="random">
        <route edges="E2W C2W"/>
    </vehicle>
    <vehicle id="c122" depart="343.44" type = "car" departLane="free" departPos="random">
        <route edges="W2C C2N"/>
    </vehicle>
    <vehicle id="c123" depart="347.52" type = "car" departLane="free" departPos="random">
        <route edges="W2C C2E"/>
    </vehicle>
    <vehicle id="c124" depart="353.10" type = "car" departLane="free" departPos="random">
        <route edges="E2W C2S"/>
    </vehicle>
    <vehicle id="c125" depart="354.22" type = "car" departLane="free" departPos="random">
        <route edges="N2C C2S"/>
    </vehicle>
    <vehicle id="c126" depart="357.04" type = "car" departLane="free" departPos="random">
        <route edges="N2C C2S"/>
    </vehicle>
    <vehicle id="c127" depart="362.29" type = "car" departLane="free" departPos="random">
        <route edges="W2C C2E"/>
    </vehicle>
    <vehicle id="c128" depart="363.76" type = "car" departLane="free" departPos="random">
        <route edges="W2C C2E"/>
    </vehicle>
    <vehicle id="c129" depart="366.49" type = "car" departLane="free" departPos="random">
        <route edges="N2C C2S"/>
    </vehicle>
    <vehicle id="c130" depart="366.81" type = "car" departLane="free" departPos="random">
        <route edges="E2W C2W"/>
    </vehicle>
    <vehicle id="c131" depart="375.21" type = "car" departLane="free" departPos="random">
        <route edges="S2C C2N"/>
    </vehicle>
    <vehicle id="c132" depart="379.31" type = "car" departLane="free" departPos="random">
        <route edges="N2C C2S"/>
    </vehicle>
    <vehicle id="c133" depart="379.71" type = "car" departLane="free" departPos="random">
        <route edges="W2C C2E"/>
    </vehicle>
    <vehicle id="c134" depart="388.89" type = "car" departLane="free" departPos="random">
        <route edges="N2C C2S"/>
    </vehicle>
    <vehicle id="c135" depart="393.35" type = "car" departLane="free" departPos="random">
        <route edges="W2C C2E"/>
    </vehicle>
    <vehicle id="c136" depart="395.05" type = "car" departLane="free" departPos="random">
        <route edges="W2C C2E"/>
    </vehicle>
    <vehicle id="c137" depart="398.59" type = "car" departLane="free" departPos="random">
        <route edges="N2C C2S"/>
    </vehicle>
    <vehicle id="c138" depart="399.56" type = "car" departLane="free" departPos="random">
        <route edges="S2C C2E"/>
    </vehicle>
    <vehicle id="c139" depart="399.59" type = "car" departLane="free" departPos="random">
        <route edges="N2C C2S"/>
    </vehicle>
    <vehicle id="c140" depart="401.44" type = "car" departLane="free" departPos="random">
        <route edges="W2C C2E"/>
    </vehicle>
    <vehicle id="c141" depart="405.29" type = "car" departLane="free" departPos="random">
        <route edges="E2W C2S"/>
    </vehicle>
    <vehicle id="c142" depart="409.82" type = "car" departLane="free" departPos="random">
        <route edges="N2C C2S"/>
    </vehicle>
    <vehicle id="c143" depart="410.74" type = "car" departLane="free" departPos="random">
        <route edges="W2C C2E"/>
    </vehicle>
    <vehicle id="c144" depart="412.16" type = "car" departLane="free" departPos="random">
        <route edges="N2C C2E"/>
    </vehicle>
    <vehicle id="c145" depart="413.17" type = "car" departLane="free" departPos="random">
        <route edges="S2C C2N"/>
    </vehicle>
    <vehicle id="c146" depart="413.76" type = "car" departLane="free" departPos="random">
        <route edges="W2C C2E"/>
    </vehicle>
    <vehicle id="c147" depart="418.10" type = "car" departLane="free" departPos="random">
        <route edges="N2C C2S"/>
    </vehicle>
    <vehicle id="c148" depart="426.01" type = "car" departLane="free" departPos="random">
        <route edges="N2C C2S"/>
    </vehicle>
    <vehicle id="c149" depart="426.61" type = "car" departLane="free" departPos="random">
        <route edges="N2C C2S"/>
    </vehicle>
    <vehicle id="c150" depart="432.75" type = "car" departLane="free" departPos="random">
        <route edges="E2W C2W"/>
    </vehicle>
    <vehicle id="c151" depart="434.01" type = "car" departLane="free" departPos="random">
        <route edges="W2C C2E"/>
    </vehicle>
    <vehicle id="c152" depart="435.69" type = "car" departLane="free" departPos="random">
        <route edges="N2C C2S"/>
    </vehicle>
    <vehicle id="c153" depart="436.99" type = "car" departLane="free" departPos="random">
        <route edges="W2C C2E"/>
    </vehicle>
    <vehicle id="c154" depart="437.40" type = "car" departLane="free" departPos="random">
        <route edges="W2C C2E"/>
    </vehicle>
    <vehicle id="c155" depart="442.51" type = "car" departLane="free" departPos="random">
        <route edges="W2C C2E"/>
    </vehicle>
    <vehicle id="c156" depart="442.81" type = "car" departLane="free" departPos="random">
        <route edges="N2C C2S"/>
    </vehicle>
    <vehicle id="c157" depart="447.73" type = "car" departLane="free" departPos="random">
        <route edges="N2C C2S"/>
    </vehicle>
    <vehicle id="c158" depart="449.35" type = "car" departLane="free" departPos="random">
        <route edges="N2C C2S"/>
    </vehicle>
    <vehicle id="c159" depart="451.98" type = "car" departLane="free" departPos="random">
        <route edges="W2C C2S"/>
    </vehicle>
    <vehicle id="c160" depart="454.55" type = "car" departLane="free" departPos="random">
        <route edges="W2C C2E"/>
    </vehicle>
    <vehicle id="c161" depart="461.14" type = "car" departLane="free" departPos="random">
        <route edges="N2C C2S"/>
    </vehicle>
    <vehicle id="c162" depart="470.35" type = "car" departLane="free" departPos="random">
        <route edges="E2W C2N"/>
    </vehicle>
    <vehicle id="c163" depart="470.56" type = "car" departLane="free" departPos="random">
        <route edges="E2W C2W"/>
    </vehicle>
    <vehicle id="c164" depart="473.36" type = "car" departLane="free" departPos="random">
        <route edges="N2C C2S"/>
    </vehicle>
    <vehicle id="c165" depart="474.22" type = "car" departLane="free" departPos="random">
        <route edges="N2C C2S"/>
    </vehicle>
    <vehicle id="c166" depart="480.53" type = "car" departLane="free" departPos="random">
        <route edges="N2C C2S"/>
    </vehicle>
    <vehicle id="c167" depart="481.78" type = "car" departLane="free" departPos="random">
        <route edges="N2C C2S"/>
    </vehicle>
    <vehicle id="c168" depart="483.39" type = "car" departLane="free" departPos="random">
        <route edges="N2C C2S"/>
    </vehicle>
    <vehicle id="c169" depart="483.97" type = "car" departLane="free" departPos="random">
        <route edges="N2C C2S"/>
    </vehicle>
    <vehicle id="c170" depart="487.27" type = "car" departLane="free" departPos="random">
        <route edges="E2W C2W"/>
    </vehicle>
    <vehicle id="c171" depart="491.76" type = "car" departLane="free" departPos="random">
        <route edges="W2C C2E"/>
    </vehicle>
    <vehicle id="c172" depart="493.59" type = "car" departLane="free" departPos="random">
        <route edges="E2W C2W"/>
    </vehicle>
    <vehicle id="c173" depart="501.11" type = "car" departLane="free" departPos="random">
        <route edges="N2C C2S"/>
    </vehicle>
    <vehicle id="c174" depart="501.28" type = "car" departLane="free" departPos="random">
        <route edges="E2W C2S"/>
    </vehicle>
    <vehicle id="c175" depart="504.09" type = "car" departLane="free" departPos="random">
        <route edges="W2C C2E"/>
    </vehicle>
    <vehicle id="c176" depart="505.99" type = "car" departLane="free" departPos="random">
        <route edges="W2C C2E"/>
    </vehicle>
    <vehicle id="c177" depart="506.56" type = "car" departLane="free" departPos="random">
        <route edges="S2C C2N"/>
    </vehicle>
    <vehicle id="c178" depart="506.89" type = "car" departLane="free" departPos="random">
        <route edges="W2C C2E"/>
    </vehicle>
    <vehicle id="c179" depart="511.10" type = "car" departLane="free" departPos="random">
        <route edges="W2C C2E"/>
    </vehicle>
    <vehicle id="c180" depart="511.69" type = "car" departLane="free" departPos="random">
        <route edges="W2C C2E"/>
    </vehicle>
    <vehicle id="c181" depart="513.34" type = "car" departLane="free" departPos="random">
        <route edges="N2C C2S"/>
    </vehicle>
    <vehicle id="c182" depart="514.26" type = "car" departLane="free" departPos="random">
        <route edges="N2C C2S"/>
    </vehicle>
    <vehicle id="c183" depart="514.35" type = "car" departLane="free" departPos="random">
        <route edges="S2C C2N"/>
    </vehicle>
    <vehicle id="c184" depart="529.07" type = "car" departLane="free" departPos="random">
        <route edges="N2C C2S"/>
    </vehicle>
    <vehicle id="c185" depart="530.29" type = "car" departLane="free" departPos="random">
        <route edges="W2C C2E"/>
    </vehicle>
    <vehicle id="c186" depart="530.83" type = "car" departLane="free" departPos="random">
        <route edges="E2W C2W"/>
    </vehicle>
    <vehicle id="c187" depart="535.67" type = "car" departLane="free" departPos="random">
        <route edges="N2C C2S"/>
    </vehicle>
    <vehicle id="c188" depart="536.00" type = "car" departLane="free" departPos="random">
        <route edges="W2C C2E"/>
    </vehicle>
    <vehicle id="c189" depart="540.18" type = "car" departLane="free" departPos="random">
        <route edges="N2C C2W"/>
    </vehicle>
    <vehicle id="c190" depart="540.61" type = "car" departLane="free" departPos="random">
        <route edges="N2C C2S"/>
    </vehicle>
    <vehicle id="c191" depart="544.49" type = "car" departLane="free" departPos="random">
        <route edges="N2C C2S"/>
    </vehicle>
    <vehicle id="c192" depart="547.58" type = "car" departLane="free" departPos="random">
        <route edges="W2C C2S"/>
    </vehicle>
    <vehicle id="c193" depart="554.92" type = "car" departLane="free" departPos="random">
        <route edges="W2C C2E"/>
    </vehicle>
    <vehicle id="c194" depart="556.06" type = "car" departLane="free" departPos="random">
        <route edges="N2C C2S"/>
    </vehicle>
    <vehicle id="c195" depart="568.64" type = "car" departLane="free" departPos="random">
        <route edges="N2C C2S"/>
    </vehicle>
    <vehicle id="c196" depart="572.07" type = "car" departLane="free" departPos="random">
        <route edges="E2W C2W"/>
    </vehicle>
    <vehicle id="c197" depart="576.09" type = "car" departLane="free" departPos="random">
        <route edges="E2W C2W"/>
    </vehicle>
    <vehicle id="c198" depart="576.26" type = "car" departLane="free" departPos="random">
        <route edges="S2C C2W W2C"/>
    </vehicle>
    <vehicle id="c199" depart="582.02" type = "car" departLane="free" departPos="random">
        <route edges="W2C C2E"/>
    </vehicle>
    <vehicle id="c200" depart="584.04" type = "car" departLane="free" departPos="random">
        <route edges="N2C C2W"/>
    </vehicle>
    <vehicle id="c201" depart="585.72" type = "car" departLane="free" departPos="random">
        <route edges="N2C C2S"/>
    </vehicle>
    <vehicle id="c202" depart="592.94" type = "car" departLane="free" departPos="random">
        <route edges="N2C C2S"/>
    </vehicle>
    <vehicle id="c203" depart="593.33" type = "car" departLane="free" departPos="random">
        <route edges="N2C C2S"/>
    </vehicle>
    <vehicle id="c204" depart="596.70" type = "car" departLane="free" departPos="random">
        <route edges="W2C C2E"/>
    </vehicle>
    <vehicle id="c205" depart="596.79" type = "car" departLane="free" departPos="random">
        <route edges="N2C C2S"/>
    </vehicle>
    <vehicle id="c206" depart="597.44" type = "car" departLane="free" departPos="random">
        <route edges="W2C C2E"/>
    </vehicle>
    <vehicle id="c207" depart="600.70" type = "car" departLane="free" departPos="random">
        <route edges="W2C C2E"/>
    </vehicle>
    <vehicle id="c208" depart="601.03" type = "car" departLane="free" departPos="random">
        <route edges="S2C C2N"/>
    </vehicle>
    <vehicle id="c209" depart="625.54" type = "car" departLane="free" departPos="random">
        <route edges="N2C C2S"/>
    </vehicle>
    <vehicle id="c210" depart="626.79" type = "car" departLane="free" departPos="random">
        <route edges="N2C C2S"/>
    </vehicle>
    <vehicle id="c211" depart="629.57" type = "car" departLane="free" departPos="random">
        <route edges="N2C C2S"/>
    </vehicle>
    <vehicle id="c212" depart="630.80" type = "car" departLane="free" departPos="random">
        <route edges="S2C C2N"/>
    </vehicle>
    <vehicle id="c213" depart="638.74" type = "car" departLane="free" departPos="random">
        <route edges="W2C C2E"/>
    </vehicle>
    <vehicle id="c214" depart="663.21" type = "car" departLane="free" departPos="random">
        <route edges="S2C C2N"/>
    </vehicle>
    <vehicle id="c215" depart="664.11" type = "car" departLane="free" departPos="random">
        <route edges="N2C C2S"/>
    </vehicle>
    <vehicle id="c216" depart="666.70" type = "car" departLane="free" departPos="random">
        <route edges="S2C C2N"/>