<?xml version="1.0" encoding="UTF-8"?>

<!-- generated on 2025-03-24 00:08:26.684045 by routeSampler.py v1_22_0+0002-63e50f52594
<configuration>
    <route-files value=".\osm.rou.xml"/>
    <turn-ratio-files value=".\pvb-turn_ratios.dat.xml"/>
    <edgedata-files value=".\pvb-motor.dat.xml"/>
    <output-file value=".\motors.rou.xml"/>
    <prefix value="m"/>
    <attributes value="type=&quot;moped&quot; departLane=&quot;free&quot;"/>
</configuration>
-->

<routes xmlns:xsi="http://www.w3.org/2001/XMLSchema-instance" xsi:noNamespaceSchemaLocation="http://sumo.dlr.de/xsd/routes_file.xsd">
<!-- begin="0.0" end="3600.0" -->
    <vehicle id="m0" depart="0.11" type="moped" departLane="free">
        <route edges="E2W C2W"/>
    </vehicle>
    <vehicle id="m1" depart="0.82" type="moped" departLane="free">
        <route edges="N2C C2S"/>
    </vehicle>
    <vehicle id="m2" depart="2.15" type="moped" departLane="free">
        <route edges="N2C C2S"/>
    </vehicle>
    <vehicle id="m3" depart="2.35" type="moped" departLane="free">
        <route edges="N2C C2S"/>
    </vehicle>
    <vehicle id="m4" depart="3.40" type="moped" departLane="free">
        <route edges="N2C C2W"/>
    </vehicle>
    <vehicle id="m5" depart="4.00" type="moped" departLane="free">
        <route edges="N2C C2E"/>
    </vehicle>
    <vehicle id="m6" depart="15.07" type="moped" departLane="free">
        <route edges="N2C C2S"/>
    </vehicle>
    <vehicle id="m7" depart="21.77" type="moped" departLane="free">
        <route edges="N2C C2S"/>
    </vehicle>
    <vehicle id="m8" depart="22.26" type="moped" departLane="free">
        <route edges="N2C C2S"/>
    </vehicle>
    <vehicle id="m9" depart="22.96" type="moped" departLane="free">
        <route edges="N2C C2S"/>
    </vehicle>
    <vehicle id="m10" depart="23.27" type="moped" departLane="free">
        <route edges="N2C C2S"/>
    </vehicle>
    <vehicle id="m11" depart="24.76" type="moped" departLane="free">
        <route edges="N2C C2S"/>
    </vehicle>
    <vehicle id="m12" depart="25.14" type="moped" departLane="free">
        <route edges="E2W C2W"/>
    </vehicle>
    <vehicle id="m13" depart="26.47" type="moped" departLane="free">
        <route edges="N2C C2S"/>
    </vehicle>
    <vehicle id="m14" depart="32.71" type="moped" departLane="free">
        <route edges="E2W C2S"/>
    </vehicle>
    <vehicle id="m15" depart="35.38" type="moped" departLane="free">
        <route edges="N2C C2S"/>
    </vehicle>
    <vehicle id="m16" depart="35.68" type="moped" departLane="free">
        <route edges="E2W C2W"/>
    </vehicle>
    <vehicle id="m17" depart="37.02" type="moped" departLane="free">
        <route edges="N2C C2E"/>
    </vehicle>
    <vehicle id="m18" depart="37.85" type="moped" departLane="free">
        <route edges="N2C C2S"/>
    </vehicle>
    <vehicle id="m19" depart="38.58" type="moped" departLane="free">
        <route edges="E2W C2S"/>
    </vehicle>
    <vehicle id="m20" depart="38.92" type="moped" departLane="free">
        <route edges="N2C C2S"/>
    </vehicle>
    <vehicle id="m21" depart="40.69" type="moped" departLane="free">
        <route edges="N2C C2S"/>
    </vehicle>
    <vehicle id="m22" depart="43.21" type="moped" departLane="free">
        <route edges="E2W C2N"/>
    </vehicle>
    <vehicle id="m23" depart="46.43" type="moped" departLane="free">
        <route edges="W2C C2E"/>
    </vehicle>
    <vehicle id="m24" depart="47.62" type="moped" departLane="free">
        <route edges="W2C C2E"/>
    </vehicle>
    <vehicle id="m25" depart="49.26" type="moped" departLane="free">
        <route edges="N2C C2S"/>
    </vehicle>
    <vehicle id="m26" depart="49.90" type="moped" departLane="free">
        <route edges="N2C C2S"/>
    </vehicle>
    <vehicle id="m27" depart="51.11" type="moped" departLane="free">
        <route edges="N2C C2E"/>
    </vehicle>
    <vehicle id="m28" depart="51.77" type="moped" departLane="free">
        <route edges="N2C C2S"/>
    </vehicle>
    <vehicle id="m29" depart="57.70" type="moped" departLane="free">
        <route edges="N2C C2S"/>
    </vehicle>
    <vehicle id="m30" depart="58.32" type="moped" departLane="free">
        <route edges="N2C C2S"/>
    </vehicle>
    <vehicle id="m31" depart="58.48" type="moped" departLane="free">
        <route edges="S2C C2N"/>
    </vehicle>
    <vehicle id="m32" depart="59.73" type="moped" departLane="free">
        <route edges="N2C C2W"/>
    </vehicle>
    <vehicle id="m33" depart="60.89" type="moped" departLane="free">
        <route edges="N2C C2S"/>
    </vehicle>
    <vehicle id="m34" depart="62.99" type="moped" departLane="free">
        <route edges="E2W C2W"/>
    </vehicle>
    <vehicle id="m35" depart="68.92" type="moped" departLane="free">
        <route edges="N2C C2S"/>
    </vehicle>
    <vehicle id="m36" depart="68.96" type="moped" departLane="free">
        <route edges="W2C C2E"/>
    </vehicle>
    <vehicle id="m37" depart="72.50" type="moped" departLane="free">
        <route edges="E2W C2N"/>
    </vehicle>
    <vehicle id="m38" depart="75.36" type="moped" departLane="free">
        <route edges="S2C C2N"/>
    </vehicle>
    <vehicle id="m39" depart="75.63" type="moped" departLane="free">
        <route edges="W2C C2E"/>
    </vehicle>
    <vehicle id="m40" depart="78.65" type="moped" departLane="free">
        <route edges="N2C C2S"/>
    </vehicle>
    <vehicle id="m41" depart="79.44" type="moped" departLane="free">
        <route edges="N2C C2W"/>
    </vehicle>
    <vehicle id="m42" depart="80.73" type="moped" departLane="free">
        <route edges="N2C C2S"/>
    </vehicle>
    <vehicle id="m43" depart="81.23" type="moped" departLane="free">
        <route edges="N2C C2S"/>
    </vehicle>
    <vehicle id="m44" depart="85.35" type="moped" departLane="free">
        <route edges="E2W C2W"/>
    </vehicle>
    <vehicle id="m45" depart="86.21" type="moped" departLane="free">
        <route edges="N2C C2S"/>
    </vehicle>
    <vehicle id="m46" depart="86.42" type="moped" departLane="free">
        <route edges="N2C C2S"/>
    </vehicle>
    <vehicle id="m47" depart="88.72" type="moped" departLane="free">
        <route edges="N2C C2S"/>
    </vehicle>
    <vehicle id="m48" depart="89.90" type="moped" departLane="free">
        <route edges="N2C C2S"/>
    </vehicle>
    <vehicle id="m49" depart="90.72" type="moped" departLane="free">
        <route edges="E2W C2N"/>
    </vehicle>
    <vehicle id="m50" depart="91.25" type="moped" departLane="free">
        <route edges="W2C C2E"/>
    </vehicle>
    <vehicle id="m51" depart="92.48" type="moped" departLane="free">
        <route edges="N2C C2E"/>
    </vehicle>
    <vehicle id="m52" depart="92.77" type="moped" departLane="free">
        <route edges="N2C C2W"/>
    </vehicle>
    <vehicle id="m53" depart="95.79" type="moped" departLane="free">
        <route edges="E2W C2W"/>
    </vehicle>
    <vehicle id="m54" depart="97.58" type="moped" departLane="free">
        <route edges="N2C C2S"/>
    </vehicle>
    <vehicle id="m55" depart="100.27" type="moped" departLane="free">
        <route edges="N2C C2S"/>
    </vehicle>
    <vehicle id="m56" depart="101.24" type="moped" departLane="free">
        <route edges="N2C C2S"/>
    </vehicle>
    <vehicle id="m57" depart="103.15" type="moped" departLane="free">
        <route edges="W2C C2E"/>
    </vehicle>
    <vehicle id="m58" depart="108.09" type="moped" departLane="free">
        <route edges="N2C C2S"/>
    </vehicle>
    <vehicle id="m59" depart="108.37" type="moped" departLane="free">
        <route edges="N2C C2S"/>
    </vehicle>
    <vehicle id="m60" depart="109.27" type="moped" departLane="free">
        <route edges="W2C C2N"/>
    </vehicle>
    <vehicle id="m61" depart="109.67" type="moped" departLane="free">
        <route edges="N2C C2S"/>
    </vehicle>
    <vehicle id="m62" depart="114.28" type="moped" departLane="free">
        <route edges="S2C C2E"/>
    </vehicle>
    <vehicle id="m63" depart="116.80" type="moped" departLane="free">
        <route edges="N2C C2S"/>
    </vehicle>
    <vehicle id="m64" depart="117.57" type="moped" departLane="free">
        <route edges="N2C C2S"/>
    </vehicle>
    <vehicle id="m65" depart="120.32" type="moped" departLane="free">
        <route edges="N2C C2S"/>
    </vehicle>
    <vehicle id="m66" depart="123.76" type="moped" departLane="free">
        <route edges="N2C C2S"/>
    </vehicle>
    <vehicle id="m67" depart="123.95" type="moped" departLane="free">
        <route edges="E2W C2W"/>
    </vehicle>
    <vehicle id="m68" depart="124.82" type="moped" departLane="free">
        <route edges="N2C C2S"/>
    </vehicle>
    <vehicle id="m69" depart="125.68" type="moped" departLane="free">
        <route edges="N2C C2S"/>
    </vehicle>
    <vehicle id="m70" depart="128.12" type="moped" departLane="free">
        <route edges="N2C C2S"/>
    </vehicle>
    <vehicle id="m71" depart="131.26" type="moped" departLane="free">
        <route edges="N2C C2S"/>
    </vehicle>
    <vehicle id="m72" depart="132.17" type="moped" departLane="free">
        <route edges="N2C C2E"/>
    </vehicle>
    <vehicle id="m73" depart="138.24" type="moped" departLane="free">
        <route edges="N2C C2S"/>
    </vehicle>
    <vehicle id="m74" depart="140.18" type="moped" departLane="free">
        <route edges="N2C C2S"/>
    </vehicle>
    <vehicle id="m75" depart="140.25" type="moped" departLane="free">
        <route edges="E2W C2N"/>
    </vehicle>
    <vehicle id="m76" depart="140.42" type="moped" departLane="free">
        <route edges="N2C C2S"/>
    </vehicle>
    <vehicle id="m77" depart="141.35" type="moped" departLane="free">
        <route edges="E2W C2W"/>
    </vehicle>
    <vehicle id="m78" depart="141.37" type="moped" departLane="free">
        <route edges="N2C C2S"/>
    </vehicle>
    <vehicle id="m79" depart="141.70" type="moped" departLane="free">
        <route edges="S2C C2N"/>
    </vehicle>
    <vehicle id="m80" depart="141.81" type="moped" departLane="free">
        <route edges="N2C C2E"/>
    </vehicle>
    <vehicle id="m81" depart="143.27" type="moped" departLane="free">
        <route edges="W2C C2S"/>
    </vehicle>
    <vehicle id="m82" depart="143.32" type="moped" departLane="free">
        <route edges="W2C C2S"/>
    </vehicle>
    <vehicle id="m83" depart="143.72" type="moped" departLane="free">
        <route edges="S2C C2N"/>
    </vehicle>
    <vehicle id="m84" depart="143.81" type="moped" departLane="free">
        <route edges="N2C C2S"/>
    </vehicle>
    <vehicle id="m85" depart="144.21" type="moped" departLane="free">
        <route edges="N2C C2S"/>
    </vehicle>
    <vehicle id="m86" depart="144.50" type="moped" departLane="free">
        <route edges="N2C C2S"/>
    </vehicle>
    <vehicle id="m87" depart="144.93" type="moped" departLane="free">
        <route edges="E2W C2W"/>
    </vehicle>
    <vehicle id="m88" depart="145.03" type="moped" departLane="free">
        <route edges="W2C C2N"/>
    </vehicle>
    <vehicle id="m89" depart="145.20" type="moped" departLane="free">
        <route edges="N2C C2S"/>
    </vehicle>
    <vehicle id="m90" depart="145.26" type="moped" departLane="free">
        <route edges="N2C C2S"/>
    </vehicle>
    <vehicle id="m91" depart="149.39" type="moped" departLane="free">
        <route edges="N2C C2S"/>
    </vehicle>
    <vehicle id="m92" depart="149.68" type="moped" departLane="free">
        <route edges="N2C C2S"/>
    </vehicle>
    <vehicle id="m93" depart="150.89" type="moped" departLane="free">
        <route edges="N2C C2S"/>
    </vehicle>
    <vehicle id="m94" depart="155.16" type="moped" departLane="free">
        <route edges="N2C C2S"/>
    </vehicle>
    <vehicle id="m95" depart="158.64" type="moped" departLane="free">
        <route edges="N2C C2S"/>
    </vehicle>
    <vehicle id="m96" depart="161.99" type="moped" departLane="free">
        <route edges="N2C C2S"/>
    </vehicle>
    <vehicle id="m97" depart="162.54" type="moped" departLane="free">
        <route edges="S2C C2N"/>
    </vehicle>
    <vehicle id="m98" depart="164.11" type="moped" departLane="free">
        <route edges="N2C C2S"/>
    </vehicle>
    <vehicle id="m99" depart="169.91" type="moped" departLane="free">
        <route edges="N2C C2S"/>
    </vehicle>
    <vehicle id="m100" depart="174.11" type="moped" departLane="free">
        <route edges="N2C C2S"/>
    </vehicle>
    <vehicle id="m101" depart="175.30" type="moped" departLane="free">
        <route edges="W2C C2E"/>
    </vehicle>
    <vehicle id="m102" depart="175.56" type="moped" departLane="free">
        <route edges="S2C C2N"/>
    </vehicle>
    <vehicle id="m103" depart="176.42" type="moped" departLane="free">
        <route edges="N2C C2S"/>
    </vehicle>
    <vehicle id="m104" depart="177.20" type="moped" departLane="free">
        <route edges="E2W C2N"/>
    </vehicle>
    <vehicle id="m105" depart="177.46" type="moped" departLane="free">
        <route edges="E2W C2W"/>
    </vehicle>
    <vehicle id="m106" depart="177.51" type="moped" departLane="free">
        <route edges="N2C C2S"/>
    </vehicle>
    <vehicle id="m107" depart="178.58" type="moped" departLane="free">
        <route edges="N2C C2S"/>
    </vehicle>
    <vehicle id="m108" depart="178.61" type="moped" departLane="free">
        <route edges="N2C C2S"/>
    </vehicle>
    <vehicle id="m109" depart="180.63" type="moped" departLane="free">
        <route edges="N2C C2W"/>
    </vehicle>
    <vehicle id="m110" depart="180.87" type="moped" departLane="free">
        <route edges="N2C C2W"/>
    </vehicle>
    <vehicle id="m111" depart="181.26" type="moped" departLane="free">
        <route edges="W2C C2E"/>
    </vehicle>
    <vehicle id="m112" depart="181.50" type="moped" departLane="free">
        <route edges="N2C C2E"/>
    </vehicle>
    <vehicle id="m113" depart="182.06" type="moped" departLane="free">
        <route edges="N2C C2W"/>
    </vehicle>
    <vehicle id="m114" depart="182.24" type="moped" departLane="free">
        <route edges="W2C C2E"/>
    </vehicle>
    <vehicle id="m115" depart="184.14" type="moped" departLane="free">
        <route edges="N2C C2S"/>
    </vehicle>
    <vehicle id="m116" depart="184.20" type="moped" departLane="free">
        <route edges="N2C C2W"/>
    </vehicle>
    <vehicle id="m117" depart="184.55" type="moped" departLane="free">
        <route edges="N2C C2S"/>
    </vehicle>
    <vehicle id="m118" depart="184.66" type="moped" departLane="free">
        <route edges="S2C C2N"/>
    </vehicle>
    <vehicle id="m119" depart="185.97" type="moped" departLane="free">
        <route edges="S2C C2E"/>
    </vehicle>
    <vehicle id="m120" depart="187.16" type="moped" departLane="free">
        <route edges="N2C C2S"/>
    </vehicle>
    <vehicle id="m121" depart="189.88" type="moped" departLane="free">
        <route edges="E2W C2W"/>
    </vehicle>
    <vehicle id="m122" depart="189.95" type="moped" departLane="free">
        <route edges="N2C C2S"/>
    </vehicle>
    <vehicle id="m123" depart="190.18" type="moped" departLane="free">
        <route edges="E2W C2W"/>
    </vehicle>
    <vehicle id="m124" depart="192.05" type="moped" departLane="free">
        <route edges="N2C C2S"/>
    </vehicle>
    <vehicle id="m125" depart="193.09" type="moped" departLane="free">
        <route edges="N2C C2S"/>
    </vehicle>
    <vehicle id="m126" depart="193.79" type="moped" departLane="free">
        <route edges="N2C C2S"/>
    </vehicle>
    <vehicle id="m127" depart="196.44" type="moped" departLane="free">
        <route edges="N2C C2S"/>
    </vehicle>
    <vehicle id="m128" depart="196.60" type="moped" departLane="free">
        <route edges="N2C C2E"/>
    </vehicle>
    <vehicle id="m129" depart="197.04" type="moped" departLane="free">
        <route edges="N2C C2S"/>
    </vehicle>
    <vehicle id="m130" depart="197.88" type="moped" departLane="free">
        <route edges="S2C C2N"/>
    </vehicle>
    <vehicle id="m131" depart="198.37" type="moped" departLane="free">
        <route edges="N2C C2S"/>
    </vehicle>
    <vehicle id="m132" depart="200.18" type="moped" departLane="free">
        <route edges="E2W C2W"/>
    </vehicle>
    <vehicle id="m133" depart="200.67" type="moped" departLane="free">
        <route edges="S2C C2N"/>
    </vehicle>
    <vehicle id="m134" depart="202.37" type="moped" departLane="free">
        <route edges="W2C C2E"/>
    </vehicle>
    <vehicle id="m135" depart="202.41" type="moped" departLane="free">
        <route edges="N2C C2S"/>
    </vehicle>
    <vehicle id="m136" depart="203.85" type="moped" departLane="free">
        <route edges="N2C C2S"/>
    </vehicle>
    <vehicle id="m137" depart="204.05" type="moped" departLane="free">
        <route edges="N2C C2S"/>
    </vehicle>
    <vehicle id="m138" depart="204.77" type="moped" departLane="free">
        <route edges="N2C C2W"/>
    </vehicle>
    <vehicle id="m139" depart="205.12" type="moped" departLane="free">
        <route edges="N2C C2S"/>
    </vehicle>
    <vehicle id="m140" depart="205.21" type="moped" departLane="free">
        <route edges="N2C C2S"/>
    </vehicle>
    <vehicle id="m141" depart="205.30" type="moped" departLane="free">
        <route edges="S2C C2N"/>
    </vehicle>
    <vehicle id="m142" depart="206.61" type="moped" departLane="free">
        <route edges="N2C C2S"/>
    </vehicle>
    <vehicle id="m143" depart="210.45" type="moped" departLane="free">
        <route edges="N2C C2S"/>
    </vehicle>
    <vehicle id="m144" depart="210.84" type="moped" departLane="free">
        <route edges="N2C C2S"/>
    </vehicle>
    <vehicle id="m145" depart="214.51" type="moped" departLane="free">
        <route edges="N2C C2S"/>
    </vehicle>
    <vehicle id="m146" depart="214.62" type="moped" departLane="free">
        <route edges="E2W C2W"/>
    </vehicle>
    <vehicle id="m147" depart="215.80" type="moped" departLane="free">
        <route edges="N2C C2S"/>
    </vehicle>
    <vehicle id="m148" depart="216.82" type="moped" departLane="free">
        <route edges="S2C C2N"/>
    </vehicle>
    <vehicle id="m149" depart="219.26" type="moped" departLane="free">
        <route edges="E2W C2W"/>
    </vehicle>
    <vehicle id="m150" depart="221.21" type="moped" departLane="free">
        <route edges="N2C C2S"/>
    </vehicle>
    <vehicle id="m151" depart="222.51" type="moped" departLane="free">
        <route edges="N2C C2S"/>
    </vehicle>
    <vehicle id="m152" depart="223.01" type="moped" departLane="free">
        <route edges="S2C C2N"/>
    </vehicle>
    <vehicle id="m153" depart="223.33" type="moped" departLane="free">
        <route edges="W2C C2E"/>
    </vehicle>
    <vehicle id="m154" depart="223.35" type="moped" departLane="free">
        <route edges="N2C C2E"/>
    </vehicle>
    <vehicle id="m155" depart="224.62" type="moped" departLane="free">
        <route edges="N2C C2W"/>
    </vehicle>
    <vehicle id="m156" depart="224.75" type="moped" departLane="free">
        <route edges="N2C C2S"/>
    </vehicle>
    <vehicle id="m157" depart="225.23" type="moped" departLane="free">
        <route edges="N2C C2S"/>
    </vehicle>
    <vehicle id="m158" depart="229.66" type="moped" departLane="free">
        <route edges="N2C C2E"/>
    </vehicle>
    <vehicle id="m159" depart="230.74" type="moped" departLane="free">
        <route edges="S2C C2N"/>
    </vehicle>
    <vehicle id="m160" depart="235.00" type="moped" departLane="free">
        <route edges="N2C C2S"/>
    </vehicle>
    <vehicle id="m161" depart="237.80" type="moped" departLane="free">
        <route edges="N2C C2S"/>
    </vehicle>
    <vehicle id="m162" depart="238.19" type="moped" departLane="free">
        <route edges="N2C C2S"/>
    </vehicle>
    <vehicle id="m163" depart="241.26" type="moped" departLane="free">
        <route edges="N2C C2W"/>
    </vehicle>
    <vehicle id="m164" depart="242.04" type="moped" departLane="free">
        <route edges="N2C C2S"/>
    </vehicle>
    <vehicle id="m165" depart="242.22" type="moped" departLane="free">
        <route edges="E2W C2W"/>
    </vehicle>
    <vehicle id="m166" depart="243.38" type="moped" departLane="free">
        <route edges="N2C C2S"/>
    </vehicle>
    <vehicle id="m167" depart="244.93" type="moped" departLane="free">
        <route edges="N2C C2W"/>
    </vehicle>
    <vehicle id="m168" depart="245.47" type="moped" departLane="free">
        <route edges="E2W C2W"/>
    </vehicle>
    <vehicle id="m169" depart="246.39" type="moped" departLane="free">
        <route edges="N2C C2S"/>
    </vehicle>
    <vehicle id="m170" depart="246.42" type="moped" departLane="free">
        <route edges="E2W C2N"/>
    </vehicle>
    <vehicle id="m171" depart="247.51" type="moped" departLane="free">
        <route edges="N2C C2S"/>
    </vehicle>
    <vehicle id="m172" depart="248.53" type="moped" departLane="free">
        <route edges="E2W C2W"/>
    </vehicle>
    <vehicle id="m173" depart="249.82" type="moped" departLane="free">
        <route edges="N2C C2S"/>
    </vehicle>
    <vehicle id="m174" depart="252.25" type="moped" departLane="free">
        <route edges="N2C C2S"/>
    </vehicle>
    <vehicle id="m175" depart="252.39" type="moped" departLane="free">
        <route edges="S2C C2N"/>
    </vehicle>
    <vehicle id="m176" depart="253.93" type="moped" departLane="free">
        <route edges="W2C C2E"/>
    </vehicle>
    <vehicle id="m177" depart="254.51" type="moped" departLane="free">
        <route edges="N2C C2S"/>
    </vehicle>
    <vehicle id="m178" depart="255.73" type="moped" departLane="free">
        <route edges="N2C C2W"/>
    </vehicle>
    <vehicle id="m179" depart="256.16" type="moped" departLane="free">
        <route edges="N2C C2S"/>
    </vehicle>
    <vehicle id="m180" depart="261.60" type="moped" departLane="free">
        <route edges="N2C C2S"/>
    </vehicle>
    <vehicle id="m181" depart="261.85" type="moped" departLane="free">
        <route edges="N2C C2E"/>
    </vehicle>
    <vehicle id="m182" depart="264.11" type="moped" departLane="free">
        <route edges="N2C C2S"/>
    </vehicle>
    <vehicle id="m183" depart="269.63" type="moped" departLane="free">
        <route edges="E2W C2W"/>
    </vehicle>
    <vehicle id="m184" depart="271.00" type="moped" departLane="free">
        <route edges="N2C C2S"/>
    </vehicle>
    <vehicle id="m185" depart="276.33" type="moped" departLane="free">
        <route edges="E2W C2W"/>
    </vehicle>
    <vehicle id="m186" depart="276.49" type="moped" departLane="free">
        <route edges="W2C C2E"/>
    </vehicle>
    <vehicle id="m187" depart="277.09" type="moped" departLane="free">
        <route edges="N2C C2E"/>
    </vehicle>
    <vehicle id="m188" depart="277.88" type="moped" departLane="free">
        <route edges="E2W C2W"/>
    </vehicle>
    <vehicle id="m189" depart="280.28" type="moped" departLane="free">
        <route edges="N2C C2S"/>
    </vehicle>
    <vehicle id="m190" depart="284.18" type="moped" departLane="free">
        <route edges="E2W C2W"/>
    </vehicle>
    <vehicle id="m191" depart="285.41" type="moped" departLane="free">
        <route edges="N2C C2S"/>
    </vehicle>
    <vehicle id="m192" depart="286.97" type="moped" departLane="free">
        <route edges="N2C C2S"/>
    </vehicle>
    <vehicle id="m193" depart="288.38" type="moped" departLane="free">
        <route edges="E2W C2W"/>
    </vehicle>
    <vehicle id="m194" depart="288.67" type="moped" departLane="free">
        <route edges="N2C C2S"/>
    </vehicle>
    <vehicle id="m195" depart="290.09" type="moped" departLane="free">
        <route edges="N2C C2S"/>
    </vehicle>
    <vehicle id="m196" depart="290.22" type="moped" departLane="free">
        <route edges="N2C C2E"/>
    </vehicle>
    <vehicle id="m197" depart="292.43" type="moped" departLane="free">
        <route edges="E2W C2W"/>
    </vehicle>
    <vehicle id="m198" depart="293.21" type="moped" departLane="free">
        <route edges="S2C C2N"/>
    </vehicle>
    <vehicle id="m199" depart="293.67" type="moped" departLane="free">
        <route edges="N2C C2S"/>
    </vehicle>
    <vehicle id="m200" depart="293.76" type="moped" departLane="free">
        <route edges="N2C C2S"/>
    </vehicle>
    <vehicle id="m201" depart="296.18" type="moped" departLane="free">
        <route edges="N2C C2S"/>
    </vehicle>
    <vehicle id="m202" depart="297.26" type="moped" departLane="free">
        <route edges="S2C C2W W2C"/>
    </vehicle>
    <vehicle id="m203" depart="297.85" type="moped" departLane="free">
        <route edges="E2W C2S"/>
    </vehicle>
    <vehicle id="m204" depart="299.60" type="moped" departLane="free">
        <route edges="E2W C2W"/>
    </vehicle>
    <vehicle id="m205" depart="300.69" type="moped" departLane="free">
        <route edges="N2C C2W"/>
    </vehicle>
    <vehicle id="m206" depart="302.86" type="moped" departLane="free">
        <route edges="N2C C2S"/>
    </vehicle>
    <vehicle id="m207" depart="304.44" type="moped" departLane="free">
        <route edges="N2C C2S"/>
    </vehicle>
    <vehicle id="m208" depart="304.88" type="moped" departLane="free">
        <route edges="N2C C2S"/>
    </vehicle>
    <vehicle id="m209" depart="305.88" type="moped" departLane="free">
        <route edges="N2C C2S"/>
    </vehicle>
    <vehicle id="m210" depart="306.20" type="moped" departLane="free">
        <route edges="E2W C2W"/>
    </vehicle>
    <vehicle id="m211" depart="306.37" type="moped" departLane="free">
        <route edges="W2C C2S"/>
    </vehicle>
    <vehicle id="m212" depart="307.45" type="moped" departLane="free">
        <route edges="N2C C2S"/>
    </vehicle>
    <vehicle id="m213" depart="309.72" type="moped" departLane="free">
        <route edges="N2C C2S"/>
    </vehicle>
    <vehicle id="m214" depart="310.08" type="moped" departLane="free">
        <route edges="E2W C2N"/>
    </vehicle>
    <vehicle id="m215" depart="312.14" type="moped" departLane="free">
        <route edges="E2W C2W"/>
    </vehicle>
    <vehicle id="m216" depart="313.08" type="moped" departLane="free">
        <route edges="N2C C2S"/>
    </vehicle>
    <vehicle id="m217" depart="313.26" type="moped" departLane="free">
        <route edges="N2C C2S"/>
    </vehicle>
    <vehicle id="m218" depart="314.81" type="moped" departLane="free">
        <route edges="N2C C2W"/>
    </vehicle>
    <vehicle id="m219" depart="316.04" type="moped" departLane="free">
        <route edges="N2C C2W"/>
    </vehicle>
    <vehicle id="m220" depart="317.28" type="moped" departLane="free">
        <route edges="E2W C2W"/>
    </vehicle>
    <vehicle id="m221" depart="318.23" type="moped" departLane="free">
        <route edges="N2C C2S"/>
    </vehicle>
    <vehicle id="m222" depart="318.88" type="moped" departLane="free">
        <route edges="N2C C2W"/>
    </vehicle>
    <vehicle id="m223" depart="323.13" type="moped" departLane="free">
        <route edges="N2C C2S"/>
    </vehicle>
    <vehicle id="m224" depart="323.56" type="moped" departLane="free">
        <route edges="N2C C2S"/>
    </vehicle>
    <vehicle id="m225" depart="328.77" type="moped" departLane="free">
        <route edges="N2C C2S"/>
    </vehicle>
    <vehicle id="m226" depart="328.87" type="moped" departLane="free">
        <route edges="N2C C2E"/>
    </vehicle>
    <vehicle id="m227" depart="329.12" type="moped" departLane="free">
        <route edges="N2C C2S"/>
    </vehicle>
    <vehicle id="m228" depart="332.50" type="moped" departLane="free">
        <route edges="W2C C2E"/>
    </vehicle>
    <vehicle id="m229" depart="332.82" type="moped" departLane="free">
        <route edges="S2C C2N"/>
    </vehicle>
    <vehicle id="m230" depart="334.86" type="moped" departLane="free">
        <route edges="N2C C2S"/>
    </vehicle>
    <vehicle id="m231" depart="337.60" type="moped" departLane="free">
        <route edges="S2C C2N"/>
    </vehicle>
    <vehicle id="m232" depart="339.91" type="moped" departLane="free">
        <route edges="N2C C2S"/>
    </vehicle>
    <vehicle id="m233" depart="341.87" type="moped" departLane="free">
        <route edges="N2C C2S"/>
    </vehicle>
    <vehicle id="m234" depart="343.30" type="moped" departLane="free">
        <route edges="N2C C2S"/>
    </vehicle>
    <vehicle id="m235" depart="347.92" type="moped" departLane="free">
        <route edges="N2C C2S"/>
    </vehicle>
    <vehicle id="m236" depart="348.10" type="moped" departLane="free">
        <route edges="N2C C2E"/>
    </vehicle>
    <vehicle id="m237" depart="349.08" type="moped" departLane="free">
        <route edges="N2C C2S"/>
    </vehicle>
    <vehicle id="m238" depart="350.52" type="moped" departLane="free">
        <route edges="N2C C2S"/>
    </vehicle>
    <vehicle id="m239" depart="351.40" type="moped" departLane="free">
        <route edges="N2C C2W"/>
    </vehicle>
    <vehicle id="m240" depart="352.83" type="moped" departLane="free">
        <route edges="N2C C2S"/>
    </vehicle>
    <vehicle id="m241" depart="354.33" type="moped" departLane="free">
        <route edges="N2C C2S"/>
    </vehicle>
    <vehicle id="m242" depart="358.18" type="moped" departLane="free">
        <route edges="N2C C2S"/>
    </vehicle>
    <vehicle id="m243" depart="358.49" type="moped" departLane="free">
        <route edges="N2C C2S"/>
    </vehicle>
    <vehicle id="m244" depart="360.56" type="moped" departLane="free">
        <route edges="N2C C2S"/>
    </vehicle>
    <vehicle id="m245" depart="360.88" type="moped" departLane="free">
        <route edges="W2C C2S"/>
    </vehicle>
    <vehicle id="m246" depart="363.52" type="moped" departLane="free">
        <route edges="N2C C2S"/>
    </vehicle>
    <vehicle id="m247" depart="366.76" type="moped" departLane="free">
        <route edges="N2C C2S"/>
    </vehicle>