<?xml version="1.0" encoding="UTF-8"?>


<routes xmlns:xsi="http://www.w3.org/2001/XMLSchema-instance" xsi:noNamespaceSchemaLocation="http://sumo.dlr.de/xsd/routes_file.xsd">
<!-- begin="0.0" end="3600.0" -->
    <vehicle id="m0" depart="0.68" type = "moped" departLane="free" departPos="random">
        <route edges="W2C C2E"/>
    </vehicle>
    <vehicle id="m1" depart="1.59" type = "moped" departLane="free" departPos="random">
        <route edges="N2C C2S"/>
    </vehicle>
    <vehicle id="m2" depart="7.27" type = "moped" departLane="free" departPos="random">
        <route edges="E2W C2W"/>
    </vehicle>
    <vehicle id="m3" depart="7.57" type = "moped" departLane="free" departPos="random">
        <route edges="W2C C2S"/>
    </vehicle>
    <vehicle id="m4" depart="8.34" type = "moped" departLane="free" departPos="random">
        <route edges="W2C C2E"/>
    </vehicle>
    <vehicle id="m5" depart="10.37" type = "moped" departLane="free" departPos="random">
        <route edges="W2C C2E"/>
    </vehicle>
    <vehicle id="m6" depart="10.52" type = "moped" departLane="free" departPos="random">
        <route edges="N2C C2S"/>
    </vehicle>
    <vehicle id="m7" depart="11.40" type = "moped" departLane="free" departPos="random">
        <route edges="S2C C2N"/>
    </vehicle>
    <vehicle id="m8" depart="13.74" type = "moped" departLane="free" departPos="random">
        <route edges="W2C C2E"/>
    </vehicle>
    <vehicle id="m9" depart="20.40" type = "moped" departLane="free" departPos="random">
        <route edges="N2C C2S"/>
    </vehicle>
    <vehicle id="m10" depart="20.59" type = "moped" departLane="free" departPos="random">
        <route edges="N2C C2W"/>
    </vehicle>
    <vehicle id="m11" depart="21.92" type = "moped" departLane="free" departPos="random">
        <route edges="W2C C2E"/>
    </vehicle>
    <vehicle id="m12" depart="24.06" type = "moped" departLane="free" departPos="random">
        <route edges="W2C C2E"/>
    </vehicle>
    <vehicle id="m13" depart="24.16" type = "moped" departLane="free" departPos="random">
        <route edges="N2C C2S"/>
    </vehicle>
    <vehicle id="m14" depart="28.67" type = "moped" departLane="free" departPos="random">
        <route edges="N2C C2S"/>
    </vehicle>
    <vehicle id="m15" depart="36.33" type = "moped" departLane="free" departPos="random">
        <route edges="S2C C2W W2C"/>
    </vehicle>
    <vehicle id="m16" depart="41.33" type = "moped" departLane="free" departPos="random">
        <route edges="N2C C2S"/>
    </vehicle>
    <vehicle id="m17" depart="41.37" type = "moped" departLane="free" departPos="random">
        <route edges="N2C C2S"/>
    </vehicle>
    <vehicle id="m18" depart="44.31" type = "moped" departLane="free" departPos="random">
        <route edges="N2C C2E"/>
    </vehicle>
    <vehicle id="m19" depart="46.91" type = "moped" departLane="free" departPos="random">
        <route edges="N2C C2E"/>
    </vehicle>
    <vehicle id="m20" depart="47.70" type = "moped" departLane="free" departPos="random">
        <route edges="S2C C2N"/>
    </vehicle>
    <vehicle id="m21" depart="48.12" type = "moped" departLane="free" departPos="random">
        <route edges="W2C C2E"/>
    </vehicle>
    <vehicle id="m22" depart="49.31" type = "moped" departLane="free" departPos="random">
        <route edges="W2C C2E"/>
    </vehicle>
    <vehicle id="m23" depart="51.08" type = "moped" departLane="free" departPos="random">
        <route edges="N2C C2S"/>
    </vehicle>
    <vehicle id="m24" depart="52.66" type = "moped" departLane="free" departPos="random">
        <route edges="S2C C2N"/>
    </vehicle>
    <vehicle id="m25" depart="55.83" type = "moped" departLane="free" departPos="random">
        <route edges="S2C C2N"/>
    </vehicle>
    <vehicle id="m26" depart="56.93" type = "moped" departLane="free" departPos="random">
        <route edges="N2C C2S"/>
    </vehicle>
    <vehicle id="m27" depart="57.82" type = "moped" departLane="free" departPos="random">
        <route edges="N2C C2S"/>
    </vehicle>
    <vehicle id="m28" depart="64.60" type = "moped" departLane="free" departPos="random">
        <route edges="W2C C2E"/>
    </vehicle>
    <vehicle id="m29" depart="64.80" type = "moped" departLane="free" departPos="random">
        <route edges="W2C C2E"/>
    </vehicle>
    <vehicle id="m30" depart="71.26" type = "moped" departLane="free" departPos="random">
        <route edges="S2C C2N"/>
    </vehicle>
    <vehicle id="m31" depart="74.42" type = "moped" departLane="free" departPos="random">
        <route edges="E2W C2W"/>
    </vehicle>
    <vehicle id="m32" depart="79.30" type = "moped" departLane="free" departPos="random">
        <route edges="N2C C2W"/>
    </vehicle>
    <vehicle id="m33" depart="79.33" type = "moped" departLane="free" departPos="random">
        <route edges="W2C C2E"/>
    </vehicle>
    <vehicle id="m34" depart="79.71" type = "moped" departLane="free" departPos="random">
        <route edges="W2C C2E"/>
    </vehicle>
    <vehicle id="m35" depart="88.19" type = "moped" departLane="free" departPos="random">
        <route edges="N2C C2E"/>
    </vehicle>
    <vehicle id="m36" depart="90.51" type = "moped" departLane="free" departPos="random">
        <route edges="N2C C2S"/>
    </vehicle>
    <vehicle id="m37" depart="97.83" type = "moped" departLane="free" departPos="random">
        <route edges="W2C C2E"/>
    </vehicle>
    <vehicle id="m38" depart="98.71" type = "moped" departLane="free" departPos="random">
        <route edges="N2C C2S"/>
    </vehicle>
    <vehicle id="m39" depart="99.07" type = "moped" departLane="free" departPos="random">
        <route edges="N2C C2S"/>
    </vehicle>
    <vehicle id="m40" depart="101.92" type = "moped" departLane="free" departPos="random">
        <route edges="W2C C2E"/>
    </vehicle>
    <vehicle id="m41" depart="105.71" type = "moped" departLane="free" departPos="random">
        <route edges="S2C C2N"/>
    </vehicle>
    <vehicle id="m42" depart="106.21" type = "moped" departLane="free" departPos="random">
        <route edges="N2C C2S"/>
    </vehicle>
    <vehicle id="m43" depart="106.81" type = "moped" departLane="free" departPos="random">
        <route edges="S2C C2N"/>
    </vehicle>
    <vehicle id="m44" depart="109.98" type = "moped" departLane="free" departPos="random">
        <route edges="N2C C2S"/>
    </vehicle>
    <vehicle id="m45" depart="110.84" type = "moped" departLane="free" departPos="random">
        <route edges="W2C C2E"/>
    </vehicle>
    <vehicle id="m46" depart="111.09" type = "moped" departLane="free" departPos="random">
        <route edges="E2W C2W"/>
    </vehicle>
    <vehicle id="m47" depart="111.38" type = "moped" departLane="free" departPos="random">
        <route edges="N2C C2S"/>
    </vehicle>
    <vehicle id="m48" depart="112.02" type = "moped" departLane="free" departPos="random">
        <route edges="S2C C2N"/>
    </vehicle>
    <vehicle id="m49" depart="113.12" type = "moped" departLane="free" departPos="random">
        <route edges="W2C C2E"/>
    </vehicle>
    <vehicle id="m50" depart="117.42" type = "moped" departLane="free" departPos="random">
        <route edges="W2C C2N"/>
    </vehicle>
    <vehicle id="m51" depart="117.52" type = "moped" departLane="free" departPos="random">
        <route edges="W2C C2E"/>
    </vehicle>
    <vehicle id="m52" depart="118.11" type = "moped" departLane="free" departPos="random">
        <route edges="E2W C2W"/>
    </vehicle>
    <vehicle id="m53" depart="120.18" type = "moped" departLane="free" departPos="random">
        <route edges="W2C C2E"/>
    </vehicle>
    <vehicle id="m54" depart="121.21" type = "moped" departLane="free" departPos="random">
        <route edges="N2C C2S"/>
    </vehicle>
    <vehicle id="m55" depart="124.06" type = "moped" departLane="free" departPos="random">
        <route edges="W2C C2E"/>
    </vehicle>
    <vehicle id="m56" depart="126.03" type = "moped" departLane="free" departPos="random">
        <route edges="W2C C2E"/>
    </vehicle>
    <vehicle id="m57" depart="129.38" type = "moped" departLane="free" departPos="random">
        <route edges="E2W C2N"/>
    </vehicle>
    <vehicle id="m58" depart="136.73" type = "moped" departLane="free" departPos="random">
        <route edges="N2C C2S"/>
    </vehicle>
    <vehicle id="m59" depart="143.16" type = "moped" departLane="free" departPos="random">
        <route edges="W2C C2E"/>
    </vehicle>
    <vehicle id="m60" depart="146.01" type = "moped" departLane="free" departPos="random">
        <route edges="N2C C2S"/>
    </vehicle>
    <vehicle id="m61" depart="149.96" type = "moped" departLane="free" departPos="random">
        <route edges="W2C C2E"/>
    </vehicle>
    <vehicle id="m62" depart="151.15" type = "moped" departLane="free" departPos="random">
        <route edges="W2C C2S"/>
    </vehicle>
    <vehicle id="m63" depart="152.25" type = "moped" departLane="free" departPos="random">
        <route edges="S2C C2N"/>
    </vehicle>
    <vehicle id="m64" depart="154.22" type = "moped" departLane="free" departPos="random">
        <route edges="S2C C2N"/>
    </vehicle>
    <vehicle id="m65" depart="154.83" type = "moped" departLane="free" departPos="random">
        <route edges="W2C C2E"/>
    </vehicle>
    <vehicle id="m66" depart="158.98" type = "moped" departLane="free" departPos="random">
        <route edges="N2C C2S"/>
    </vehicle>
    <vehicle id="m67" depart="159.80" type = "moped" departLane="free" departPos="random">
        <route edges="S2C C2N"/>
    </vehicle>
    <vehicle id="m68" depart="160.43" type = "moped" departLane="free" departPos="random">
        <route edges="S2C C2N"/>
    </vehicle>
    <vehicle id="m69" depart="161.20" type = "moped" departLane="free" departPos="random">
        <route edges="N2C C2S"/>
    </vehicle>
    <vehicle id="m70" depart="161.47" type = "moped" departLane="free" departPos="random">
        <route edges="N2C C2E"/>
    </vehicle>
    <vehicle id="m71" depart="163.15" type = "moped" departLane="free" departPos="random">
        <route edges="N2C C2S"/>
    </vehicle>
    <vehicle id="m72" depart="163.45" type = "moped" departLane="free" departPos="random">
        <route edges="N2C C2S"/>
    </vehicle>
    <vehicle id="m73" depart="165.80" type = "moped" departLane="free" departPos="random">
        <route edges="S2C C2N"/>
    </vehicle>
    <vehicle id="m74" depart="166.04" type = "moped" departLane="free" departPos="random">
        <route edges="W2C C2E"/>
    </vehicle>
    <vehicle id="m75" depart="171.51" type = "moped" departLane="free" departPos="random">
        <route edges="N2C C2E"/>
    </vehicle>
    <vehicle id="m76" depart="175.17" type = "moped" departLane="free" departPos="random">
        <route edges="W2C C2E"/>
    </vehicle>
    <vehicle id="m77" depart="178.19" type = "moped" departLane="free" departPos="random">
        <route edges="N2C C2S"/>
    </vehicle>
    <vehicle id="m78" depart="180.07" type = "moped" departLane="free" departPos="random">
        <route edges="W2C C2E"/>
    </vehicle>
    <vehicle id="m79" depart="181.76" type = "moped" departLane="free" departPos="random">
        <route edges="S2C C2W W2C"/>
    </vehicle>
    <vehicle id="m80" depart="186.82" type = "moped" departLane="free" departPos="random">
        <route edges="N2C C2S"/>
    </vehicle>
    <vehicle id="m81" depart="186.84" type = "moped" departLane="free" departPos="random">
        <route edges="N2C C2S"/>
    </vehicle>
    <vehicle id="m82" depart="187.92" type = "moped" departLane="free" departPos="random">
        <route edges="N2C C2S"/>
    </vehicle>
    <vehicle id="m83" depart="207.73" type = "moped" departLane="free" departPos="random">
        <route edges="S2C C2N"/>
    </vehicle>
    <vehicle id="m84" depart="207.87" type = "moped" departLane="free" departPos="random">
        <route edges="E2W C2S"/>
    </vehicle>
    <vehicle id="m85" depart="212.74" type = "moped" departLane="free" departPos="random">
        <route edges="S2C C2W W2C"/>
    </vehicle>
    <vehicle id="m86" depart="214.10" type = "moped" departLane="free" departPos="random">
        <route edges="W2C C2S"/>
    </vehicle>
    <vehicle id="m87" depart="214.98" type = "moped" departLane="free" departPos="random">
        <route edges="N2C C2S"/>
    </vehicle>
    <vehicle id="m88" depart="218.26" type = "moped" departLane="free" departPos="random">
        <route edges="N2C C2S"/>
    </vehicle>
    <vehicle id="m89" depart="220.79" type = "moped" departLane="free" departPos="random">
        <route edges="S2C C2N"/>
    </vehicle>
    <vehicle id="m90" depart="227.31" type = "moped" departLane="free" departPos="random">
        <route edges="E2W C2W"/>
    </vehicle>
    <vehicle id="m91" depart="232.17" type = "moped" departLane="free" departPos="random">
        <route edges="S2C C2N"/>
    </vehicle>
    <vehicle id="m92" depart="232.87" type = "moped" departLane="free" departPos="random">
        <route edges="N2C C2S"/>
    </vehicle>
    <vehicle id="m93" depart="242.58" type = "moped" departLane="free" departPos="random">
        <route edges="W2C C2E"/>
    </vehicle>
    <vehicle id="m94" depart="246.00" type = "moped" departLane="free" departPos="random">
        <route edges="W2C C2N"/>
    </vehicle>
    <vehicle id="m95" depart="246.03" type = "moped" departLane="free" departPos="random">
        <route edges="S2C C2N"/>
    </vehicle>
    <vehicle id="m96" depart="246.62" type = "moped" departLane="free" departPos="random">
        <route edges="N2C C2E"/>
    </vehicle>
    <vehicle id="m97" depart="248.51" type = "moped" departLane="free" departPos="random">
        <route edges="S2C C2N"/>
    </vehicle>
    <vehicle id="m98" depart="252.01" type = "moped" departLane="free" departPos="random">
        <route edges="N2C C2S"/>
    </vehicle>
    <vehicle id="m99" depart="255.21" type = "moped" departLane="free" departPos="random">
        <route edges="S2C C2N"/>
    </vehicle>
    <vehicle id="m100" depart="259.60" type = "moped" departLane="free" departPos="random">
        <route edges="W2C C2N"/>
    </vehicle>
    <vehicle id="m101" depart="261.62" type = "moped" departLane="free" departPos="random">
        <route edges="E2W C2W"/>
    </vehicle>
    <vehicle id="m102" depart="266.55" type = "moped" departLane="free" departPos="random">
        <route edges="S2C C2N"/>
    </vehicle>
    <vehicle id="m103" depart="267.27" type = "moped" departLane="free" departPos="random">
        <route edges="E2W C2W"/>
    </vehicle>
    <vehicle id="m104" depart="274.99" type = "moped" departLane="free" departPos="random">
        <route edges="W2C C2E"/>
    </vehicle>
    <vehicle id="m105" depart="275.89" type = "moped" departLane="free" departPos="random">
        <route edges="N2C C2S"/>
    </vehicle>
    <vehicle id="m106" depart="277.48" type = "moped" departLane="free" departPos="random">
        <route edges="W2C C2E"/>
    </vehicle>
    <vehicle id="m107" depart="277.72" type = "moped" departLane="free" departPos="random">
        <route edges="S2C C2W W2C"/>
    </vehicle>
    <vehicle id="m108" depart="279.41" type = "moped" departLane="free" departPos="random">
        <route edges="N2C C2S"/>
    </vehicle>
    <vehicle id="m109" depart="279.51" type = "moped" departLane="free" departPos="random">
        <route edges="N2C C2S"/>
    </vehicle>
    <vehicle id="m110" depart="295.95" type = "moped" departLane="free" departPos="random">
        <route edges="N2C C2W"/>
    </vehicle>
    <vehicle id="m111" depart="297.78" type = "moped" departLane="free" departPos="random">
        <route edges="S2C C2N"/>
    </vehicle>
    <vehicle id="m112" depart="302.11" type = "moped" departLane="free" departPos="random">
        <route edges="S2C C2N"/>
    </vehicle>
    <vehicle id="m113" depart="303.48" type = "moped" departLane="free" departPos="random">
        <route edges="N2C C2W"/>
    </vehicle>
    <vehicle id="m114" depart="303.81" type = "moped" departLane="free" departPos="random">
        <route edges="N2C C2S"/>
    </vehicle>
    <vehicle id="m115" depart="307.23" type = "moped" departLane="free" departPos="random">
        <route edges="W2C C2N"/>
    </vehicle>
    <vehicle id="m116" depart="313.85" type = "moped" departLane="free" departPos="random">
        <route edges="S2C C2N"/>
    </vehicle>
    <vehicle id="m117" depart="317.53" type = "moped" departLane="free" departPos="random">
        <route edges="N2C C2S"/>
    </vehicle>
    <vehicle id="m118" depart="319.82" type = "moped" departLane="free" departPos="random">
        <route edges="N2C C2S"/>
    </vehicle>
    <vehicle id="m119" depart="323.32" type = "moped" departLane="free" departPos="random">
        <route edges="N2C C2W"/>
    </vehicle>
    <vehicle id="m120" depart="326.60" type = "moped" departLane="free" departPos="random">
        <route edges="W2C C2E"/>
    </vehicle>
    <vehicle id="m121" depart="331.54" type = "moped" departLane="free" departPos="random">
        <route edges="E2W C2W"/>
    </vehicle>
    <vehicle id="m122" depart="332.23" type = "moped" departLane="free" departPos="random">
        <route edges="S2C C2N"/>
    </vehicle>
    <vehicle id="m123" depart="334.91" type = "moped" departLane="free" departPos="random">
        <route edges="N2C C2S"/>
    </vehicle>
    <vehicle id="m124" depart="336.27" type = "moped" departLane="free" departPos="random">
        <route edges="W2C C2S"/>
    </vehicle>
    <vehicle id="m125" depart="337.22" type = "moped" departLane="free" departPos="random">
        <route edges="S2C C2E"/>
    </vehicle>
    <vehicle id="m126" depart="338.53" type = "moped" departLane="free" departPos="random">
        <route edges="S2C C2N"/>
    </vehicle>
    <vehicle id="m127" depart="338.95" type = "moped" departLane="free" departPos="random">
        <route edges="N2C C2S"/>
    </vehicle>
    <vehicle id="m128" depart="339.58" type = "moped" departLane="free" departPos="random">
        <route edges="W2C C2E"/>
    </vehicle>
    <vehicle id="m129" depart="342.19" type = "moped" departLane="free" departPos="random">
        <route edges="W2C C2S"/>
    </vehicle>
    <vehicle id="m130" depart="343.34" type = "moped" departLane="free" departPos="random">
        <route edges="S2C C2N"/>
    </vehicle>
    <vehicle id="m131" depart="351.05" type = "moped" departLane="free" departPos="random">
        <route edges="N2C C2S"/>
    </vehicle>
    <vehicle id="m132" depart="351.23" type = "moped" departLane="free" departPos="random">
        <route edges="N2C C2S"/>
    </vehicle>
    <vehicle id="m133" depart="353.65" type = "moped" departLane="free" departPos="random">
        <route edges="W2C C2E"/>
    </vehicle>
    <vehicle id="m134" depart="355.95" type = "moped" departLane="free" departPos="random">
        <route edges="S2C C2N"/>
    </vehicle>
    <vehicle id="m135" depart="357.49" type = "moped" departLane="free" departPos="random">
        <route edges="E2W C2W"/>
    </vehicle>
    <vehicle id="m136" depart="359.52" type = "moped" departLane="free" departPos="random">
        <route edges="N2C C2S"/>
    </vehicle>
    <vehicle id="m137" depart="363.39" type = "moped" departLane="free" departPos="random">
        <route edges="W2C C2E"/>
    </vehicle>
    <vehicle id="m138" depart="364.54" type = "moped" departLane="free" departPos="random">
        <route edges="N2C C2W"/>
    </vehicle>
    <vehicle id="m139" depart="369.89" type = "moped" departLane="free" departPos="random">
        <route edges="E2W C2W"/>
    </vehicle>
    <vehicle id="m140" depart="371.24" type = "moped" departLane="free" departPos="random">
        <route edges="E2W C2N"/>
    </vehicle>
    <vehicle id="m141" depart="373.24" type = "moped" departLane="free" departPos="random">
        <route edges="S2C C2N"/>
    </vehicle>
    <vehicle id="m142" depart="375.85" type = "moped" departLane="free" departPos="random">
        <route edges="N2C C2S"/>
    </vehicle>
    <vehicle id="m143" depart="377.31" type = "moped" departLane="free" departPos="random">
        <route edges="S2C C2N"/>
    </vehicle>
    <vehicle id="m144" depart="378.93" type = "moped" departLane="free" departPos="random">
        <route edges="W2C C2E"/>
    </vehicle>
    <vehicle id="m145" depart="382.84" type = "moped" departLane="free" departPos="random">
        <route edges="S2C C2N"/>
    </vehicle>
    <vehicle id="m146" depart="392.02" type = "moped" departLane="free" departPos="random">
        <route edges="N2C C2S"/>
    </vehicle>
    <vehicle id="m147" depart="398.69" type = "moped" departLane="free" departPos="random">
        <route edges="N2C C2S"/>
    </vehicle>
    <vehicle id="m148" depart="399.52" type = "moped" departLane="free" departPos="random">
        <route edges="S2C C2N"/>
    </vehicle>
    <vehicle id="m149" depart="402.77" type = "moped" departLane="free" departPos="random">
        <route edges="E2W C2W"/>
    </vehicle>
    <vehicle id="m150" depart="402.97" type = "moped" departLane="free" departPos="random">
        <route edges="N2C C2S"/>
    </vehicle>
    <vehicle id="m151" depart="406.55" type = "moped" departLane="free" departPos="random">
        <route edges="N2C C2E"/>
    </vehicle>
    <vehicle id="m152" depart="406.60" type = "moped" departLane="free" departPos="random">
        <route edges="S2C C2N"/>
    </vehicle>
    <vehicle id="m153" depart="411.43" type = "moped" departLane="free" departPos="random">
        <route edges="S2C C2W W2C"/>
    </vehicle>
    <vehicle id="m154" depart="416.66" type = "moped" departLane="free" departPos="random">
        <route edges="N2C C2S"/>
    </vehicle>
    <vehicle id="m155" depart="417.68" type = "moped" departLane="free" departPos="random">
        <route edges="W2C C2E"/>
    </vehicle>
    <vehicle id="m156" depart="418.29" type = "moped" departLane="free" departPos="random">
        <route edges="E2W C2W"/>
    </vehicle>
    <vehicle id="m157" depart="421.44" type = "moped" departLane="free" departPos="random">
        <route edges="N2C C2S"/>
    </vehicle>
    <vehicle id="m158" depart="423.52" type = "moped" departLane="free" departPos="random">
        <route edges="S2C C2N"/>
    </vehicle>
    <vehicle id="m159" depart="426.29" type = "moped" departLane="free" departPos="random">
        <route edges="S2C C2N"/>
    </vehicle>
    <vehicle id="m160" depart="426.57" type = "moped" departLane="free" departPos="random">
        <route edges="N2C C2S"/>
    </vehicle>
    <vehicle id="m161" depart="427.95" type = "moped" departLane="free" departPos="random">
        <route edges="W2C C2N"/>
    </vehicle>
    <vehicle id="m162" depart="431.83" type = "moped" departLane="free" departPos="random">
        <route edges="W2C C2E"/>
    </vehicle>
    <vehicle id="m163" depart="432.89" type = "moped" departLane="free" departPos="random">
        <route edges="S2C C2N"/>
    </vehicle>
    <vehicle id="m164" depart="437.38" type = "moped" departLane="free" departPos="random">
        <route edges="N2C C2W"/>
    </vehicle>
    <vehicle id="m165" depart="439.31" type = "moped" departLane="free" departPos="random">
        <route edges="W2C C2E"/>
    </vehicle>
    <vehicle id="m166" depart="440.76" type = "moped" departLane="free" departPos="random">
        <route edges="W2C C2E"/>
    </vehicle>
    <vehicle id="m167" depart="447.78" type = "moped" departLane="free" departPos="random">
        <route edges="W2C C2N"/>
    </vehicle>
    <vehicle id="m168" depart="450.45" type = "moped" departLane="free" departPos="random">
        <route edges="W2C C2N"/>
    </vehicle>
    <vehicle id="m169" depart="451.28" type = "moped" departLane="free" departPos="random">
        <route edges="N2C C2S"/>
    </vehicle>
    <vehicle id="m170" depart="452.61" type = "moped" departLane="free" departPos="random">
        <route edges="N2C C2S"/>
    </vehicle>
    <vehicle id="m171" depart="454.51" type = "moped" departLane="free" departPos="random">
        <route edges="W2C C2E"/>
    </vehicle>
    <vehicle id="m172" depart="458.59" type = "moped" departLane="free" departPos="random">
        <route edges="N2C C2S"/>
    </vehicle>
    <vehicle id="m173" depart="458.83" type = "moped" departLane="free" departPos="random">
        <route edges="N2C C2S"/>
    </vehicle>
    <vehicle id="m174" depart="460.76" type = "moped" departLane="free" departPos="random">
        <route edges="S2C C2N"/>
    </vehicle>
    <vehicle id="m175" depart="463.86" type = "moped" departLane="free" departPos="random">
        <route edges="N2C C2S"/>
    </vehicle>
    <vehicle id="m176" depart="466.56" type = "moped" departLane="free" departPos="random">
        <route edges="N2C C2S"/>
    </vehicle>
    <vehicle id="m177" depart="467.38" type = "moped" departLane="free" departPos="random">
        <route edges="E2W C2W"/>
    </vehicle>
    <vehicle id="m178" depart="467.75" type = "moped" departLane="free" departPos="random">
        <route edges="S2C C2W W2C"/>
    </vehicle>
    <vehicle id="m179" depart="467.79" type = "moped" departLane="free" departPos="random">
        <route edges="E2W C2W"/>
    </vehicle>
    <vehicle id="m180" depart="468.17" type = "moped" departLane="free" departPos="random">
        <route edges="N2C C2S"/>
    </vehicle>
    <vehicle id="m181" depart="473.47" type = "moped" departLane="free" departPos="random">
        <route edges="N2C C2E"/>
    </vehicle>
    <vehicle id="m182" depart="474.10" type = "moped" departLane="free" departPos="random">
        <route edges="S2C C2N"/>
    </vehicle>
    <vehicle id="m183" depart="476.54" type = "moped" departLane="free" departPos="random">
        <route edges="N2C C2S"/>
    </vehicle>
    <vehicle id="m184" depart="481.14" type = "moped" departLane="free" departPos="random">
        <route edges="N2C C2S"/>
    </vehicle>
    <vehicle id="m185" depart="488.84" type = "moped" departLane="free" departPos="random">
        <route edges="W2C C2E"/>
    </vehicle>
    <vehicle id="m186" depart="493.20" type = "moped" departLane="free" departPos="random">
        <route edges="W2C C2E"/>
    </vehicle>
    <vehicle id="m187" depart="495.09" type = "moped" departLane="free" departPos="random">
        <route edges="N2C C2W"/>
    </vehicle>
    <vehicle id="m188" depart="499.94" type = "moped" departLane="free" departPos="random">
        <route edges="S2C C2N"/>
    </vehicle>
    <vehicle id="m189" depart="500.82" type = "moped" departLane="free" departPos="random">
        <route edges="N2C C2W"/>
    </vehicle>
    <vehicle id="m190" depart="507.45" type = "moped" departLane="free" departPos="random">
        <route edges="N2C C2S"/>
    </vehicle>
    <vehicle id="m191" depart="511.81" type = "moped" departLane="free" departPos="random">
        <route edges="N2C C2S"/>
    </vehicle>
    <vehicle id="m192" depart="517.73" type = "moped" departLane="free" departPos="random">
        <route edges="N2C C2S"/>
    </vehicle>
    <vehicle id="m193" depart="518.19" type = "moped" departLane="free" departPos="random">
        <route edges="S2C C2E"/>
    </vehicle>
    <vehicle id="m194" depart="519.80" type = "moped" departLane="free" departPos="random">
        <route edges="W2C C2E"/>
    </vehicle>
    <vehicle id="m195" depart="521.87" type = "moped" departLane="free" departPos="random">
        <route edges="N2C C2S"/>
    </vehicle>
    <vehicle id="m196" depart="522.71" type = "moped" departLane="free" departPos="random">
        <route edges="S2C C2N"/>
    </vehicle>
    <vehicle id="m197" depart="529.42" type = "moped" departLane="free" departPos="random">
        <route edges="E2W C2W"/>
    </vehicle>
    <vehicle id="m198" depart="532.74" type = "moped" departLane="free" departPos="random">
        <route edges="W2C C2E"/>
    </vehicle>
    <vehicle id="m199" depart="533.44" type = "moped" departLane="free" departPos="random">
        <route edges="E2W C2S"/>
    </vehicle>
    <vehicle id="m200" depart="538.57" type = "moped" departLane="free" departPos="random">
        <route edges="S2C C2N"/>
    </vehicle>
    <vehicle id="m201" depart="541.88" type = "moped" departLane="free" departPos="random">
        <route edges="N2C C2S"/>
    </vehicle>
    <vehicle id="m202" depart="542.19" type = "moped" departLane="free" departPos="random">
        <route edges="N2C C2S"/>
    </vehicle>
    <vehicle id="m203" depart="545.70" type = "moped" departLane="free" departPos="random">
        <route edges="S2C C2N"/>
    </vehicle>
    <vehicle id="m204" depart="548.38" type = "moped" departLane="free" departPos="random">
        <route edges="S2C C2N"/>
    </vehicle>
    <vehicle id="m205" depart="548.39" type = "moped" departLane="free" departPos="random">
        <route edges="S2C C2N"/>
    </vehicle>
    <vehicle id="m206" depart="553.71" type = "moped" departLane="free" departPos="random">
        <route edges="N2C C2S"/>
    </vehicle>
    <vehicle id="m207" depart="555.56" type = "moped" departLane="free" departPos="random">
        <route edges="S2C C2N"/>
    </vehicle>
    <vehicle id="m208" depart="566.37" type = "moped" departLane="free" departPos="random">
        <route edges="N2C C2E"/>
    </vehicle>
    <vehicle id="m209" depart="571.05" type = "moped" departLane="free" departPos="random">
        <route edges="N2C C2S"/>
    </vehicle>
    <vehicle id="m210" depart="571.24" type = "moped" departLane="free" departPos="random">
        <route edges="N2C C2S"/>
    </vehicle>
    <vehicle id="m211" depart="572.49" type = "moped" departLane="free" departPos="random">
        <route edges="E2W C2W"/>
    </vehicle>
    <vehicle id="m212" depart="581.83" type = "moped" departLane="free" departPos="random">
        <route edges="E2W C2W"/>
    </vehicle>
    <vehicle id="m213" depart="586.13" type = "moped" departLane="free" departPos="random">