<?xml version="1.0" encoding="UTF-8"?>

<!-- generated on 2025-03-23 19:12:34 by Eclipse SUMO netedit Version 1.22.0
<neteditConfiguration xmlns:xsi="http://www.w3.org/2001/XMLSchema-instance" xsi:noNamespaceSchemaLocation="http://sumo.dlr.de/xsd/neteditConfiguration.xsd">

    <input>
        <sumocfg-file value="osm.sumocfg"/>
        <additional-files value=""/>
        <route-files value="osm.rou.xml"/>
        <sumo-net-file value="osm.net.xml.gz"/>
    </input>

    <output>
        <output-file value="osm.net.xml.gz"/>
        <output.street-names value="true"/>
    </output>

    <processing>
        <geometry.min-radius.fix.railways value="false"/>
        <geometry.max-grade.fix value="false"/>
        <offset.disable-normalization value="true"/>
        <lefthand value="0"/>
    </processing>

    <junctions>
        <no-turnarounds value="true"/>
        <junctions.corner-detail value="5"/>
        <junctions.limit-turn-speed value="5.50"/>
        <rectangular-lane-cut value="0"/>
    </junctions>

    <pedestrian>
        <walkingareas value="0"/>
    </pedestrian>

    <netedit>
        <ignore.routeelements value="false"/>
    </netedit>

</neteditConfiguration>
-->

<net version="1.20" junctionCornerDetail="5" limitTurnSpeed="5.50" xmlns:xsi="http://www.w3.org/2001/XMLSchema-instance" xsi:noNamespaceSchemaLocation="http://sumo.dlr.de/xsd/net_file.xsd">

    <location netOffset="-581703.75,-2324842.18" convBoundary="126.60,81.71,505.11,520.12" origBoundary="105.786264,21.022517,105.791586,21.027222" projParameter="+proj=utm +zone=48 +ellps=WGS84 +datum=WGS84 +units=m +no_defs"/>

    <type id="highway.residential" priority="3" numLanes="1" speed="13.89" disallow="tram rail_urban rail rail_electric rail_fast ship container cable_car subway aircraft wheelchair scooter drone" oneway="0"/>
    <type id="highway.secondary" priority="11" numLanes="1" speed="27.78" disallow="tram rail_urban rail rail_electric rail_fast ship container cable_car subway aircraft wheelchair scooter drone" oneway="0"/>

    <edge id=":C_0" function="internal">
        <lane id=":C_0_0" index="0" disallow="tram rail_urban rail rail_electric rail_fast ship container cable_car subway aircraft wheelchair scooter drone" speed="9.04" length="20.16" shape="321.11,250.20 317.35,248.58 313.50,249.41 309.57,252.69 305.56,258.43"/>
    </edge>
    <edge id=":C_1" function="internal">
        <lane id=":C_1_0" index="0" disallow="tram rail_urban rail rail_electric rail_fast ship container cable_car subway aircraft wheelchair scooter drone" speed="13.89" length="42.17" shape="321.11,250.20 287.48,224.75"/>
    </edge>
    <edge id=":C_2" function="internal">
        <lane id=":C_2_0" index="0" disallow="tram rail_urban rail rail_electric rail_fast ship container cable_car subway aircraft wheelchair scooter drone" speed="13.50" length="37.68" shape="321.11,250.20 313.54,242.74 309.61,234.76 309.34,226.25 312.71,217.21"/>
    </edge>
    <edge id=":C_3" function="internal">
        <lane id=":C_3_0" index="0" disallow="tram rail_urban rail rail_electric rail_fast ship container cable_car subway aircraft wheelchair scooter drone" speed="11.11" length="25.39" shape="325.38,224.29 321.50,232.32 319.82,238.90 320.34,244.01 323.05,247.66"/>
    </edge>
    <edge id=":C_4" function="internal">
        <lane id=":C_4_0" index="0" disallow="tram rail_urban rail rail_electric rail_fast ship container cable_car subway aircraft wheelchair scooter drone" speed="27.78" length="39.42" shape="325.38,224.29 305.56,258.43"/>
        <lane id=":C_4_1" index="1" disallow="tram rail_urban rail rail_electric rail_fast ship container cable_car subway aircraft wheelchair scooter drone" speed="27.78" length="39.42" shape="322.59,222.73 302.79,256.82"/>
        <lane id=":C_4_2" index="2" disallow="tram rail_urban rail rail_electric rail_fast ship container cable_car subway aircraft wheelchair scooter drone" speed="27.78" length="39.42" shape="319.80,221.17 300.02,255.21"/>
    </edge>
    <edge id=":C_7" function="internal">
        <lane id=":C_7_0" index="0" disallow="tram rail_urban rail rail_electric rail_fast ship container cable_car subway aircraft wheelchair scooter drone" speed="12.44" length="17.35" shape="319.80,221.17 313.02,229.88 307.18,232.30"/>
    </edge>
    <edge id=":C_16" function="internal">
        <lane id=":C_16_0" index="0" disallow="tram rail_urban rail rail_electric rail_fast ship container cable_car subway aircraft wheelchair scooter drone" speed="12.44" length="21.83" shape="307.18,232.30 305.72,232.90 297.38,230.96 287.48,224.75"/>
    </edge>
    <edge id=":C_8" function="internal">
        <lane id=":C_8_0" index="0" disallow="tram rail_urban rail rail_electric rail_fast ship container cable_car subway aircraft wheelchair scooter drone" speed="9.53" length="22.62" shape="289.40,222.19 294.00,224.29 298.49,223.64 302.86,220.24 307.13,214.09"/>
    </edge>
    <edge id=":C_9" function="internal">
        <lane id=":C_9_0" index="0" disallow="tram rail_urban rail rail_electric rail_fast ship container cable_car subway aircraft wheelchair scooter drone" speed="13.89" length="42.21" shape="289.40,222.19 323.05,247.66"/>
    </edge>
    <edge id=":C_10" function="internal">
        <lane id=":C_10_0" index="0" disallow="tram rail_urban rail rail_electric rail_fast ship container cable_car subway aircraft wheelchair scooter drone" speed="13.48" length="38.50" shape="289.40,222.19 297.86,230.08 302.46,238.22 303.18,246.59 300.02,255.21"/>
    </edge>
    <edge id=":C_11" function="internal">
        <lane id=":C_11_0" index="0" disallow="tram rail_urban rail rail_electric rail_fast ship container cable_car subway aircraft wheelchair scooter drone" speed="11.09" length="25.83" shape="287.89,248.14 291.40,240.66 292.50,234.27 291.19,228.97 287.48,224.75"/>
    </edge>
    <edge id=":C_12" function="internal">
        <lane id=":C_12_0" index="0" disallow="tram rail_urban rail rail_electric rail_fast ship container cable_car subway aircraft wheelchair scooter drone" speed="27.78" length="39.17" shape="287.89,248.14 307.13,214.09"/>
        <lane id=":C_12_1" index="1" disallow="tram rail_urban rail rail_electric rail_fast ship container cable_car subway aircraft wheelchair scooter drone" speed="27.78" length="39.17" shape="290.66,249.75 309.92,215.65"/>
        <lane id=":C_12_2" index="2" disallow="tram rail_urban rail rail_electric rail_fast ship container cable_car subway aircraft wheelchair scooter drone" speed="27.78" length="39.17" shape="293.42,251.36 312.71,217.21"/>
    </edge>
    <edge id=":C_15" function="internal">
        <lane id=":C_15_0" index="0" disallow="tram rail_urban rail rail_electric rail_fast ship container cable_car subway aircraft wheelchair scooter drone" speed="11.94" length="16.38" shape="293.42,251.36 299.74,243.33 305.37,240.84"/>
    </edge>
    <edge id=":C_17" function="internal">
        <lane id=":C_17_0" index="0" disallow="tram rail_urban rail rail_electric rail_fast ship container cable_car subway aircraft wheelchair scooter drone" speed="11.94" length="19.59" shape="305.37,240.84 306.45,240.36 314.05,241.97 323.05,247.66"/>
    </edge>
    <edge id=":W_0" function="internal">
        <lane id=":W_0_0" index="0" disallow="tram rail_urban rail rail_electric rail_fast ship container cable_car subway aircraft wheelchair scooter drone" speed="3.65" length="4.67" shape="125.61,102.03 125.16,100.66 125.34,99.78 126.15,99.40 127.59,99.51"/>
    </edge>

    <edge id="C2E" from="C" to="E" name="Phố Hoàng Quán Chi" priority="3" type="highway.residential" shape="322.08,248.93 438.00,337.71 455.71,351.75 488.55,377.80 505.11,390.94">
        <lane id="C2E_0" index="0" disallow="tram rail_urban rail rail_electric rail_fast ship container cable_car subway aircraft wheelchair scooter drone" speed="13.89" length="231.70" shape="323.05,247.66 438.98,336.45 456.70,350.50 489.54,376.55 506.10,389.69">
            <param key="origId" value="163053426"/>
        </lane>
        <param key="origTo" value="5716671969"/>
    </edge>
    <edge id="C2N" from="C" to="N" name="Phố Phạm Văn Bạch" priority="11" type="highway.secondary" spreadType="center" shape="302.79,256.82 220.82,397.55 212.51,411.96 205.96,424.63 186.05,460.64 161.81,504.04 153.56,520.12">
        <lane id="C2N_0" index="0" disallow="tram rail_urban rail rail_electric rail_fast ship container cable_car subway aircraft wheelchair scooter drone" speed="27.78" length="302.80" shape="305.56,258.43 223.59,399.16 215.32,413.49 208.78,426.14 188.85,462.19 164.63,505.55 156.17,522.04">
            <param key="origId" value="106042137"/>
        </lane>
        <lane id="C2N_1" index="1" disallow="tram rail_urban rail rail_electric rail_fast ship container cable_car subway aircraft wheelchair scooter drone" speed="27.78" length="302.80" shape="302.79,256.82 220.82,397.55 212.51,411.96 205.96,424.63 186.05,460.64 161.81,504.04 153.51,520.22">
            <param key="origId" value="106042137"/>
        </lane>
        <lane id="C2N_2" index="2" disallow="tram rail_urban rail rail_electric rail_fast ship container cable_car subway aircraft wheelchair scooter drone" speed="27.78" length="302.80" shape="300.02,255.21 218.05,395.94 209.70,410.43 203.14,423.12 183.25,459.09 158.99,502.53 150.84,518.41">
            <param key="origId" value="106042137"/>
        </lane>
        <param key="origFrom" value="6629490565"/>
    </edge>
    <edge id="C2S" from="C" to="S" name="Phố Phạm Văn Bạch" priority="11" type="highway.secondary" spreadType="center" shape="309.92,215.65 345.84,151.40 360.91,126.94 363.55,122.29 386.87,81.71">
        <lane id="C2S_0" index="0" disallow="tram rail_urban rail rail_electric rail_fast ship container cable_car subway aircraft wheelchair scooter drone" speed="27.78" length="155.04" shape="307.13,214.09 343.08,149.78 358.16,125.31 360.77,120.70 384.37,79.64">
            <param key="origId" value="116432101"/>
        </lane>
        <lane id="C2S_1" index="1" disallow="tram rail_urban rail rail_electric rail_fast ship container cable_car subway aircraft wheelchair scooter drone" speed="27.78" length="155.04" shape="309.92,215.65 345.84,151.40 360.91,126.94 363.55,122.29 387.15,81.23">
            <param key="origId" value="116432101"/>
        </lane>
        <lane id="C2S_2" index="2" disallow="tram rail_urban rail rail_electric rail_fast ship container cable_car subway aircraft wheelchair scooter drone" speed="27.78" length="155.04" shape="312.71,217.21 348.60,153.02 363.66,128.57 366.33,123.88 389.92,82.82">
            <param key="origId" value="116432101"/>
        </lane>
        <param key="origFrom" value="6672692458"/>
        <param key="origTo" value="5718885710"/>
    </edge>
    <edge id="C2W" from="C" to="W" name="Phố Hoàng Quán Chi" priority="3" type="highway.residential" shape="288.44,223.47 224.72,175.86 209.91,164.58 187.91,147.53 178.52,140.29 146.80,116.80 143.86,114.33 126.60,100.77">
        <lane id="C2W_0" index="0" disallow="tram rail_urban rail rail_electric rail_fast ship container cable_car subway aircraft wheelchair scooter drone" speed="13.89" length="203.15" shape="287.48,224.75 223.76,177.14 208.94,165.85 186.93,148.80 177.56,141.57 145.81,118.06 142.85,115.57 125.61,102.03">
            <param key="origId" value="163053426"/>
        </lane>
        <param key="origFrom" value="6672692461"/>
        <param key="origTo" value="5718885712"/>
    </edge>
    <edge id="E2W" from="E" to="C" name="Phố Hoàng Quán Chi" priority="3" type="highway.residential" shape="505.11,390.94 438.00,337.71 322.08,248.93">
        <lane id="E2W_0" index="0" disallow="tram rail_urban rail rail_electric rail_fast ship container cable_car subway aircraft wheelchair scooter drone" speed="13.89" length="231.64" shape="504.12,392.19 437.02,338.97 321.11,250.20">
            <param key="origId" value="163053426"/>
        </lane>
        <param key="origTo" value="5716671969"/>
    </edge>
    <edge id="N2C" from="N" to="C" name="Phố Phạm Văn Bạch" priority="11" type="highway.secondary" spreadType="center" shape="133.24,511.29 147.22,495.53 193.61,417.82 200.42,404.86 208.28,390.12 290.76,249.58">
        <lane id="N2C_0" index="0" disallow="tram rail_urban rail rail_electric rail_fast ship container cable_car subway aircraft wheelchair scooter drone" speed="27.78" length="301.61" shape="133.27,506.44 144.63,493.63 190.82,416.25 197.59,403.36 205.49,388.56 287.89,248.14">
            <param key="origId" value="116432101"/>
        </lane>
        <lane id="N2C_1" index="1" disallow="tram rail_urban rail rail_electric rail_fast ship container cable_car subway aircraft wheelchair scooter drone" speed="27.78" length="301.61" shape="135.93,508.26 147.22,495.53 193.61,417.82 200.42,404.86 208.28,390.12 290.66,249.75">
            <param key="origId" value="116432101"/>
        </lane>
        <lane id="N2C_2" index="2" disallow="tram rail_urban rail rail_electric rail_fast ship container cable_car subway aircraft wheelchair scooter drone" speed="27.78" length="301.61" shape="138.60,510.07 149.81,497.43 196.40,419.39 203.25,406.36 211.07,391.68 293.42,251.36">
            <param key="origId" value="116432101"/>
        </lane>
    </edge>
    <edge id="S2C" from="S" to="C" name="Phố Phạm Văn Bạch" priority="11" type="highway.secondary" spreadType="center" shape="399.41,87.64 350.93,172.88 326.28,216.24">
        <lane id="S2C_0" index="0" disallow="tram rail_urban rail rail_electric rail_fast ship container cable_car subway aircraft wheelchair scooter drone" speed="27.78" length="154.89" shape="401.93,89.68 353.71,174.46 325.38,224.29">
            <param key="origId" value="106042137"/>
        </lane>
        <lane id="S2C_1" index="1" disallow="tram rail_urban rail rail_electric rail_fast ship container cable_car subway aircraft wheelchair scooter drone" speed="27.78" length="154.89" shape="399.15,88.09 350.93,172.88 322.59,222.73">
            <param key="origId" value="106042137"/>
        </lane>
        <lane id="S2C_2" index="2" disallow="tram rail_urban rail rail_electric rail_fast ship container cable_car subway aircraft wheelchair scooter drone" speed="27.78" length="154.89" shape="396.37,86.51 348.15,171.30 319.80,221.17">
            <param key="origId" value="106042137"/>
        </lane>
    </edge>
    <edge id="W2C" from="W" to="C" name="Phố Hoàng Quán Chi" priority="3" type="highway.residential" shape="126.60,100.77 143.86,114.33 146.80,116.80 178.52,140.29 187.91,147.53 209.91,164.58 224.72,175.86 288.44,223.47">
        <lane id="W2C_0" index="0" disallow="tram rail_urban rail rail_electric rail_fast ship container cable_car subway aircraft wheelchair scooter drone" speed="13.89" length="203.07" shape="127.59,99.51 144.87,113.09 147.79,115.54 179.48,139.01 188.89,146.26 210.88,163.31 225.68,174.58 289.40,222.19">
            <param key="origId" value="163053426"/>
        </lane>
        <param key="origTo" value="6628492687"/>
    </edge>

    <additionals>
        <tlLogic id="C" type="static" programID="0" offset="0">
            <phase duration="120" state="rrrGGGGrGrrrrGGgGrGr"/>
            <phase duration="3"  state="rrryyyyryrrrryyyyryr"/>
            <phase duration="1"  state="rrrrrrrrrrrrrrrrrrrr"/>
            <phase duration="31" state="GGgrrrrrrrgGgrrrrrrr"/>
            <phase duration="3"  state="yyyrrrrrrryyyrrrrrrr"/>
            <phase duration="1"  state="rrrrrrrrrrrrrrrrrrrr"/>
            <phase duration="21" state="rrrrrrrgrgrrrrrrrgrg"/>
            <phase duration="3"  state="rrrrrrryrrrrrrryrrrr"/>
            <phase duration="1"  state="rrrrrrrrrrrrrrrrrrrr"/>
        </tlLogic>

    </additionals>

    <junction id="C" type="priority" x="306.71" y="235.12" incLanes="E2W_0 S2C_0 S2C_1 S2C_2 W2C_0 N2C_0 N2C_1 N2C_2" intLanes=":C_0_0 :C_1_0 :C_2_0 :C_3_0 :C_4_0 :C_4_1 :C_4_2 :C_16_0 :C_8_0 :C_9_0 :C_10_0 :C_11_0 :C_12_0 :C_12_1 :C_12_2 :C_17_0" shape="320.13,251.47 324.03,246.39 322.29,244.41 321.43,241.80 321.45,238.56 322.35,234.70 324.13,230.20 326.78,225.08 305.73,213.31 303.21,217.26 300.68,220.14 298.12,221.94 295.55,222.67 292.96,222.32 290.36,220.91 286.52,226.03 288.94,228.43 290.38,231.28 290.86,234.60 290.38,238.39 288.93,242.63 286.51,247.34 306.94,259.24 309.30,255.59 311.60,252.88 313.84,251.12 316.00,250.29 318.10,250.41">
        <request index="0"  response="0000000001110000" foes="0000000001110000" cont="0"/>
        <request index="1"  response="1111100011110000" foes="1111110011110000" cont="0"/>
        <request index="2"  response="1111001011110000" foes="1111001011110000" cont="0"/>
        <request index="3"  response="0000000000000000" foes="1000001000000000" cont="0"/>
        <request index="4"  response="0000000000000000" foes="1000011000000111" cont="0"/>
        <request index="5"  response="0000000000000000" foes="1000011000000111" cont="0"/>
        <request index="6"  response="0000000000000000" foes="1000011000000111" cont="0"/>
        <request index="7"  response="0111100000000000" foes="0111111000000110" cont="1"/>
        <request index="8"  response="0111000000000000" foes="0111000000000000" cont="0"/>
        <request index="9"  response="1111000011111000" foes="1111000011111100" cont="0"/>
        <request index="10" response="1111000011110010" foes="1111000011110010" cont="0"/>
        <request index="11" response="0000000000000000" foes="0000000010000010" cont="0"/>
        <request index="12" response="0000000000000000" foes="0000011110000110" cont="0"/>
        <request index="13" response="0000000000000000" foes="0000011110000110" cont="0"/>
        <request index="14" response="0000000000000000" foes="0000011110000110" cont="0"/>
        <request index="15" response="0000000001111000" foes="0000011001111110" cont="1"/>
    </junction>
    <junction id="E" type="dead_end" x="505.11" y="390.94" incLanes="C2E_0" intLanes="" shape="505.11,390.94 507.10,388.43 505.11,390.94"/>
    <junction id="N" type="dead_end" x="143.40" y="515.70" incLanes="C2N_0 C2N_1 C2N_2" intLanes="" shape="139.11,511.90 131.93,505.53 157.51,522.94 148.97,518.56"/>
    <junction id="S" type="dead_end" x="393.14" y="84.67" incLanes="C2S_0 C2S_1 C2S_2" intLanes="" shape="394.98,85.72 403.32,90.47 382.98,78.84 391.31,83.62"/>
    <junction id="W" type="priority" x="126.60" y="100.77" incLanes="C2W_0" intLanes=":W_0_0" shape="126.60,100.77 124.62,103.29 126.60,100.77">
        <request index="0" response="0" foes="0" cont="0"/>
    </junction>

    <junction id=":C_16_0" type="internal" x="307.18" y="232.30" incLanes=":C_7_0 N2C_0 N2C_1 N2C_2" intLanes=":C_1_0 :C_2_0 :C_9_0 :C_10_0 :C_11_0 :C_12_0 :C_12_1 :C_12_2"/>
    <junction id=":C_17_0" type="internal" x="305.37" y="240.84" incLanes=":C_15_0 S2C_0 S2C_1 S2C_2" intLanes=":C_1_0 :C_2_0 :C_3_0 :C_4_0 :C_4_1 :C_4_2 :C_9_0 :C_10_0"/>

    <connection from="C2W" to="W2C" fromLane="0" toLane="0" via=":W_0_0" dir="t" state="M"/>
    <connection from="E2W" to="C2N" fromLane="0" toLane="0" via=":C_0_0" dir="r" state="m"/>
    <connection from="E2W" to="C2W" fromLane="0" toLane="0" via=":C_1_0" dir="s" state="m"/>
    <connection from="E2W" to="C2S" fromLane="0" toLane="2" via=":C_2_0" dir="l" state="m"/>
    <connection from="N2C" to="C2W" fromLane="0" toLane="0" via=":C_11_0" dir="r" state="M"/>
    <connection from="N2C" to="C2S" fromLane="0" toLane="0" via=":C_12_0" dir="s" state="M"/>
    <connection from="N2C" to="C2S" fromLane="1" toLane="1" via=":C_12_1" dir="s" state="M"/>
    <connection from="N2C" to="C2S" fromLane="2" toLane="2" via=":C_12_2" dir="s" state="M"/>
    <connection from="N2C" to="C2E" fromLane="2" toLane="0" via=":C_15_0" dir="l" state="m"/>
    <connection from="S2C" to="C2E" fromLane="0" toLane="0" via=":C_3_0" dir="r" state="M"/>
    <connection from="S2C" to="C2N" fromLane="0" toLane="0" via=":C_4_0" dir="s" state="M"/>
    <connection from="S2C" to="C2N" fromLane="1" toLane="1" via=":C_4_1" dir="s" state="M"/>
    <connection from="S2C" to="C2N" fromLane="2" toLane="2" via=":C_4_2" dir="s" state="M"/>
    <connection from="S2C" to="C2W" fromLane="2" toLane="0" via=":C_7_0" dir="l" state="m"/>
    <connection from="W2C" to="C2S" fromLane="0" toLane="0" via=":C_8_0" dir="r" state="m"/>
    <connection from="W2C" to="C2E" fromLane="0" toLane="0" via=":C_9_0" dir="s" state="m"/>
    <connection from="W2C" to="C2N" fromLane="0" toLane="2" via=":C_10_0" dir="l" state="m"/>

    <connection from=":C_0" to="C2N" fromLane="0" toLane="0" dir="r" state="M"/>
    <connection from=":C_1" to="C2W" fromLane="0" toLane="0" dir="s" state="M"/>
    <connection from=":C_2" to="C2S" fromLane="0" toLane="2" dir="l" state="M"/>
    <connection from=":C_3" to="C2E" fromLane="0" toLane="0" dir="r" state="M"/>
    <connection from=":C_4" to="C2N" fromLane="0" toLane="0" dir="s" state="M"/>
    <connection from=":C_4" to="C2N" fromLane="1" toLane="1" dir="s" state="M"/>
    <connection from=":C_4" to="C2N" fromLane="2" toLane="2" dir="s" state="M"/>
    <connection from=":C_7" to="C2W" fromLane="0" toLane="0" via=":C_16_0" dir="l" state="m"/>
    <connection from=":C_16" to="C2W" fromLane="0" toLane="0" dir="l" state="M"/>
    <connection from=":C_8" to="C2S" fromLane="0" toLane="0" dir="r" state="M"/>
    <connection from=":C_9" to="C2E" fromLane="0" toLane="0" dir="s" state="M"/>
    <connection from=":C_10" to="C2N" fromLane="0" toLane="2" dir="l" state="M"/>
    <connection from=":C_11" to="C2W" fromLane="0" toLane="0" dir="r" state="M"/>
    <connection from=":C_12" to="C2S" fromLane="0" toLane="0" dir="s" state="M"/>
    <connection from=":C_12" to="C2S" fromLane="1" toLane="1" dir="s" state="M"/>
    <connection from=":C_12" to="C2S" fromLane="2" toLane="2" dir="s" state="M"/>
    <connection from=":C_15" to="C2E" fromLane="0" toLane="0" via=":C_17_0" dir="l" state="m"/>
    <connection from=":C_17" to="C2E" fromLane="0" toLane="0" dir="l" state="M"/>
    <connection from=":W_0" to="W2C" fromLane="0" toLane="0" dir="t" state="M"/>

</net>
