<?xml version="1.0" encoding="UTF-8"?>

<!-- generated on 2025-03-13 18:04:06 by Eclipse SUMO netedit Version 1.22.0
-->

<routes xmlns:xsi="http://www.w3.org/2001/XMLSchema-instance" xsi:noNamespaceSchemaLocation="http://sumo.dlr.de/xsd/routes_file.xsd">
    <!-- VTypes -->
    <vType id="t_0" vClass="motorcycle" emissionClass="HBEFA3/PC_G_EU4" width="0.80"/>
    <!-- Routes -->
    <route id="r_0" edges="116432101#2 116432101#3 163053426#4"/>
    <route id="r_1" edges="116432101#2 116432101#3 116432101#5"/>
    <!-- Vehicles, persons and containers (sorted by depart) -->
    <flow id="f_0" type="t_0" begin="0.00" route="r_0" end="3600.00" vehsPerHour="1800"/>
    <flow id="f_1" type="t_0" begin="0.00" route="r_1" end="3600.00" vehsPerHour="1800"/>
    <flow id="f_2" begin="0.00" route="r_1" end="3600.00" vehsPerHour="1800"/>
</routes>
