<?xml version="1.0" encoding="UTF-8"?>

<!-- generated on 2025-03-23 23:27:56 by Eclipse SUMO netedit Version 1.22.0
-->

<routes xmlns:xsi="http://www.w3.org/2001/XMLSchema-instance" xsi:noNamespaceSchemaLocation="http://sumo.dlr.de/xsd/routes_file.xsd">
    <!-- VTypes -->
    <vType id="car" latAlignment="left" laneChangeModel="SL2015"/>
    <vType id="moped" vClass="moped" emissionClass="HBEFA3/PC_G_EU4" width="0.70" height="1.50" latAlignment="right"/>
    <!-- Routes -->
    <route id="r_0" edges="N2C C2W"/>
    <route id="r_1" edges="N2C C2S"/>
    <route id="r_10" edges="W2C C2S"/>
    <route id="r_11" edges="W2C C2N"/>
    <route id="r_2" edges="N2C C2E"/>
    <route id="r_3" edges="S2C C2E"/>
    <route id="r_4" edges="S2C C2N"/>
    <route id="r_5" edges="S2C C2W W2C"/>
    <route id="r_6" edges="E2W C2N"/>
    <route id="r_7" edges="E2W C2W"/>
    <route id="r_8" edges="E2W C2S"/>
    <route id="r_9" edges="W2C C2E"/>
</routes>
