<?xml version="1.0" encoding="UTF-8"?>

<!-- generated on 2025-03-24 15:32:12 by Eclipse SUMO netedit Version 1.22.0
<neteditConfiguration xmlns:xsi="http://www.w3.org/2001/XMLSchema-instance" xsi:noNamespaceSchemaLocation="http://sumo.dlr.de/xsd/neteditConfiguration.xsd">

    <input>
        <sumocfg-file value=".\osm.sumocfg"/>
        <additional-files value=""/>
        <route-files value=".\../../../../../Traffic Control/(SUMO)PVB/Sumo-master/sumo/PVB/osm.rou.xml"/>
        <sumo-net-file value=".\osm.net.xml.gz"/>
    </input>

    <output>
        <output.street-names value="true"/>
    </output>

    <processing>
        <geometry.min-radius.fix.railways value="false"/>
        <geometry.max-grade.fix value="false"/>
        <offset.disable-normalization value="true"/>
        <lefthand value="0"/>
    </processing>

    <junctions>
        <no-turnarounds value="true"/>
        <junctions.corner-detail value="5"/>
        <junctions.limit-turn-speed value="5.50"/>
        <rectangular-lane-cut value="0"/>
    </junctions>

    <pedestrian>
        <walkingareas value="0"/>
    </pedestrian>

    <netedit>
        <ignore.routeelements value="false"/>
    </netedit>

</neteditConfiguration>
-->

<additional xmlns:xsi="http://www.w3.org/2001/XMLSchema-instance" xsi:noNamespaceSchemaLocation="http://sumo.dlr.de/xsd/additional_file.xsd">
    <tlLogic id="C" type="static" programID="0" offset="0">
        <phase duration="31" state="rrrGGGGrGrrrrGGgGrGr"/>
        <phase duration="3"  state="rrryyyyryrrrryyyyryr"/>
        <phase duration="1"  state="rrrrrrrrrrrrrrrrrrrr"/>
        <phase duration="31" state="GGgrrrrrrrgGgrrrrrrr"/>
        <phase duration="3"  state="yyyrrrrrrryyyrrrrrrr"/>
        <phase duration="1"  state="rrrrrrrrrrrrrrrrrrrr"/>
        <phase duration="31" state="rrrrrrrgrgrrrrrrrgrg"/>
        <phase duration="3"  state="rrrrrrryrrrrrrryrrrr"/>
        <phase duration="1"  state="rrrrrrrrrrrrrrrrrrrr"/>
    </tlLogic>
</additional>
