<?xml version="1.0" encoding="UTF-8"?>

<!-- generated on 2025-03-24 16:32:39 by Eclipse SUMO netedit Version 1.22.0
-->

<routes xmlns:xsi="http://www.w3.org/2001/XMLSchema-instance" xsi:noNamespaceSchemaLocation="http://sumo.dlr.de/xsd/routes_file.xsd">
    <!-- VTypes -->
    <vType id="car" minGap="1.50" latAlignment="left" laneChangeModel="SL2015" sigma="0.5"/>
    <vType id="moped" minGap="0.50" vClass="moped" emissionClass="HBEFA3/PC_G_EU4" width="0.70" height="1.50" latAlignment="right" sigma="0.8"/>
    <!-- Routes -->
    <route id="r_0" edges="N2C C2W"/>
    <route id="r_1" edges="N2C C2S"/>
    <route id="r_10" edges="W2C C2S"/>
    <route id="r_11" edges="W2C C2N"/>
    <route id="r_2" edges="N2C C2E"/>
    <route id="r_3" edges="S2C C2E"/>
    <route id="r_4" edges="S2C C2N"/>
    <route id="r_5" edges="S2C C2W W2C"/>
    <route id="r_6" edges="E2W C2N"/>
    <route id="r_7" edges="E2W C2W"/>
    <route id="r_8" edges="E2W C2S"/>
    <route id="r_9" edges="W2C C2E"/>
    <!-- Vehicles, persons and containers (sorted by depart) -->
    <vehicle id="c0" type="car" depart="0.48" departLane="free" departPos="random">
        <route edges="S2C C2N"/>
    </vehicle>
    <vehicle id="m0" type="moped" depart="0.68" departLane="free" departPos="random">
        <route edges="W2C C2E"/>
    </vehicle>
    <vehicle id="m1" type="moped" depart="1.59" departLane="free" departPos="random">
        <route edges="N2C C2S"/>
    </vehicle>
    <vehicle id="c1" type="car" depart="4.87" departLane="free" departPos="random">
        <route edges="N2C C2S"/>
    </vehicle>
    <vehicle id="c2" type="car" depart="5.63" departLane="free" departPos="random">
        <route edges="N2C C2W"/>
    </vehicle>
    <vehicle id="m2" type="moped" depart="7.27" departLane="free" departPos="random">
        <route edges="E2W C2W"/>
    </vehicle>
    <vehicle id="m3" type="moped" depart="7.57" departLane="free" departPos="random">
        <route edges="W2C C2S"/>
    </vehicle>
    <vehicle id="m4" type="moped" depart="8.34" departLane="free" departPos="random">
        <route edges="W2C C2E"/>
    </vehicle>
    <vehicle id="m5" type="moped" depart="10.37" departLane="free" departPos="random">
        <route edges="W2C C2E"/>
    </vehicle>
    <vehicle id="m6" type="moped" depart="10.52" departLane="free" departPos="random">
        <route edges="N2C C2S"/>
    </vehicle>
    <vehicle id="m7" type="moped" depart="11.40" departLane="free" departPos="random">
        <route edges="S2C C2N"/>
    </vehicle>
    <vehicle id="c3" type="car" depart="11.59" departLane="free" departPos="random">
        <route edges="N2C C2S"/>
    </vehicle>
    <vehicle id="m8" type="moped" depart="13.74" departLane="free" departPos="random">
        <route edges="W2C C2E"/>
    </vehicle>
    <vehicle id="c4" type="car" depart="13.75" departLane="free" departPos="random">
        <route edges="S2C C2N"/>
    </vehicle>
    <vehicle id="c5" type="car" depart="15.71" departLane="free" departPos="random">
        <route edges="S2C C2N"/>
    </vehicle>
    <vehicle id="c6" type="car" depart="18.83" departLane="free" departPos="random">
        <route edges="S2C C2N"/>
    </vehicle>
    <vehicle id="c7" type="car" depart="19.82" departLane="free" departPos="random">
        <route edges="W2C C2E"/>
    </vehicle>
    <vehicle id="m9" type="moped" depart="20.40" departLane="free" departPos="random">
        <route edges="N2C C2S"/>
    </vehicle>
    <vehicle id="m10" type="moped" depart="20.59" departLane="free" departPos="random">
        <route edges="N2C C2W"/>
    </vehicle>
    <vehicle id="m11" type="moped" depart="21.92" departLane="free" departPos="random">
        <route edges="W2C C2E"/>
    </vehicle>
    <vehicle id="m12" type="moped" depart="24.06" departLane="free" departPos="random">
        <route edges="W2C C2E"/>
    </vehicle>
    <vehicle id="m13" type="moped" depart="24.16" departLane="free" departPos="random">
        <route edges="N2C C2S"/>
    </vehicle>
    <vehicle id="c8" type="car" depart="27.59" departLane="free" departPos="random">
        <route edges="S2C C2N"/>
    </vehicle>
    <vehicle id="c9" type="car" depart="28.23" departLane="free" departPos="random">
        <route edges="N2C C2S"/>
    </vehicle>
    <vehicle id="m14" type="moped" depart="28.67" departLane="free" departPos="random">
        <route edges="N2C C2S"/>
    </vehicle>
    <vehicle id="c10" type="car" depart="31.91" departLane="free" departPos="random">
        <route edges="N2C C2S"/>
    </vehicle>
    <vehicle id="c11" type="car" depart="32.54" departLane="free" departPos="random">
        <route edges="S2C C2N"/>
    </vehicle>
    <vehicle id="c12" type="car" depart="33.59" departLane="free" departPos="random">
        <route edges="N2C C2E"/>
    </vehicle>
    <vehicle id="c13" type="car" depart="35.73" departLane="free" departPos="random">
        <route edges="W2C C2E"/>
    </vehicle>
    <vehicle id="m15" type="moped" depart="36.33" departLane="free" departPos="random">
        <route edges="S2C C2W W2C"/>
    </vehicle>
    <vehicle id="c14" type="car" depart="36.47" departLane="free" departPos="random">
        <route edges="N2C C2S"/>
    </vehicle>
    <vehicle id="c15" type="car" depart="39.71" departLane="free" departPos="random">
        <route edges="W2C C2E"/>
    </vehicle>
    <vehicle id="m16" type="moped" depart="41.33" departLane="free" departPos="random">
        <route edges="N2C C2S"/>
    </vehicle>
    <vehicle id="m17" type="moped" depart="41.37" departLane="free" departPos="random">
        <route edges="N2C C2S"/>
    </vehicle>
    <vehicle id="c16" type="car" depart="42.14" departLane="free" departPos="random">
        <route edges="N2C C2S"/>
    </vehicle>
    <vehicle id="c17" type="car" depart="43.57" departLane="free" departPos="random">
        <route edges="N2C C2S"/>
    </vehicle>
    <vehicle id="c18" type="car" depart="43.59" departLane="free" departPos="random">
        <route edges="N2C C2S"/>
    </vehicle>
    <vehicle id="c19" type="car" depart="43.63" departLane="free" departPos="random">
        <route edges="E2W C2W"/>
    </vehicle>
    <vehicle id="m18" type="moped" depart="44.31" departLane="free" departPos="random">
        <route edges="N2C C2E"/>
    </vehicle>
    <vehicle id="c20" type="car" depart="44.65" departLane="free" departPos="random">
        <route edges="W2C C2E"/>
    </vehicle>
    <vehicle id="c21" type="car" depart="45.39" departLane="free" departPos="random">
        <route edges="N2C C2S"/>
    </vehicle>
    <vehicle id="m19" type="moped" depart="46.91" departLane="free" departPos="random">
        <route edges="N2C C2E"/>
    </vehicle>
    <vehicle id="m20" type="moped" depart="47.70" departLane="free" departPos="random">
        <route edges="S2C C2N"/>
    </vehicle>
    <vehicle id="m21" type="moped" depart="48.12" departLane="free" departPos="random">
        <route edges="W2C C2E"/>
    </vehicle>
    <vehicle id="m22" type="moped" depart="49.31" departLane="free" departPos="random">
        <route edges="W2C C2E"/>
    </vehicle>
    <vehicle id="m23" type="moped" depart="51.08" departLane="free" departPos="random">
        <route edges="N2C C2S"/>
    </vehicle>
    <vehicle id="c22" type="car" depart="51.53" departLane="free" departPos="random">
        <route edges="S2C C2N"/>
    </vehicle>
    <vehicle id="m24" type="moped" depart="52.66" departLane="free" departPos="random">
        <route edges="S2C C2N"/>
    </vehicle>
    <vehicle id="c23" type="car" depart="52.90" departLane="free" departPos="random">
        <route edges="N2C C2S"/>
    </vehicle>
    <vehicle id="m25" type="moped" depart="55.83" departLane="free" departPos="random">
        <route edges="S2C C2N"/>
    </vehicle>
    <vehicle id="m26" type="moped" depart="56.93" departLane="free" departPos="random">
        <route edges="N2C C2S"/>
    </vehicle>
    <vehicle id="m27" type="moped" depart="57.82" departLane="free" departPos="random">
        <route edges="N2C C2S"/>
    </vehicle>
    <vehicle id="c24" type="car" depart="61.01" departLane="free" departPos="random">
        <route edges="E2W C2W"/>
    </vehicle>
    <vehicle id="c25" type="car" depart="63.19" departLane="free" departPos="random">
        <route edges="W2C C2E"/>
    </vehicle>
    <vehicle id="m28" type="moped" depart="64.60" departLane="free" departPos="random">
        <route edges="W2C C2E"/>
    </vehicle>
    <vehicle id="m29" type="moped" depart="64.80" departLane="free" departPos="random">
        <route edges="W2C C2E"/>
    </vehicle>
    <vehicle id="c26" type="car" depart="64.82" departLane="free" departPos="random">
        <route edges="N2C C2S"/>
    </vehicle>
    <vehicle id="c27" type="car" depart="68.82" departLane="free" departPos="random">
        <route edges="N2C C2S"/>
    </vehicle>
    <vehicle id="c28" type="car" depart="69.09" departLane="free" departPos="random">
        <route edges="N2C C2S"/>
    </vehicle>
    <vehicle id="c29" type="car" depart="69.58" departLane="free" departPos="random">
        <route edges="E2W C2W"/>
    </vehicle>
    <vehicle id="m30" type="moped" depart="71.26" departLane="free" departPos="random">
        <route edges="S2C C2N"/>
    </vehicle>
    <vehicle id="m31" type="moped" depart="74.42" departLane="free" departPos="random">
        <route edges="E2W C2W"/>
    </vehicle>
    <vehicle id="c30" type="car" depart="75.40" departLane="free" departPos="random">
        <route edges="S2C C2E"/>
    </vehicle>
    <vehicle id="c31" type="car" depart="78.56" departLane="free" departPos="random">
        <route edges="S2C C2N"/>
    </vehicle>
    <vehicle id="m32" type="moped" depart="79.30" departLane="free" departPos="random">
        <route edges="N2C C2W"/>
    </vehicle>
    <vehicle id="m33" type="moped" depart="79.33" departLane="free" departPos="random">
        <route edges="W2C C2E"/>
    </vehicle>
    <vehicle id="m34" type="moped" depart="79.71" departLane="free" departPos="random">
        <route edges="W2C C2E"/>
    </vehicle>
    <vehicle id="c32" type="car" depart="84.07" departLane="free" departPos="random">
        <route edges="W2C C2E"/>
    </vehicle>
    <vehicle id="c33" type="car" depart="84.94" departLane="free" departPos="random">
        <route edges="W2C C2E"/>
    </vehicle>
    <vehicle id="c34" type="car" depart="87.09" departLane="free" departPos="random">
        <route edges="W2C C2E"/>
    </vehicle>
    <vehicle id="m35" type="moped" depart="88.19" departLane="free" departPos="random">
        <route edges="N2C C2E"/>
    </vehicle>
    <vehicle id="m36" type="moped" depart="90.51" departLane="free" departPos="random">
        <route edges="N2C C2S"/>
    </vehicle>
    <vehicle id="c35" type="car" depart="91.61" departLane="free" departPos="random">
        <route edges="W2C C2E"/>
    </vehicle>
    <vehicle id="c36" type="car" depart="94.31" departLane="free" departPos="random">
        <route edges="N2C C2S"/>
    </vehicle>
    <vehicle id="c37" type="car" depart="97.80" departLane="free" departPos="random">
        <route edges="E2W C2W"/>
    </vehicle>
    <vehicle id="m37" type="moped" depart="97.83" departLane="free" departPos="random">
        <route edges="W2C C2E"/>
    </vehicle>
    <vehicle id="m38" type="moped" depart="98.71" departLane="free" departPos="random">
        <route edges="N2C C2S"/>
    </vehicle>
    <vehicle id="m39" type="moped" depart="99.07" departLane="free" departPos="random">
        <route edges="N2C C2S"/>
    </vehicle>
    <vehicle id="c38" type="car" depart="99.13" departLane="free" departPos="random">
        <route edges="W2C C2S"/>
    </vehicle>
    <vehicle id="m40" type="moped" depart="101.92" departLane="free" departPos="random">
        <route edges="W2C C2E"/>
    </vehicle>
    <vehicle id="c39" type="car" depart="105.01" departLane="free" departPos="random">
        <route edges="E2W C2W"/>
    </vehicle>
    <vehicle id="m41" type="moped" depart="105.71" departLane="free" departPos="random">
        <route edges="S2C C2N"/>
    </vehicle>
    <vehicle id="m42" type="moped" depart="106.21" departLane="free" departPos="random">
        <route edges="N2C C2S"/>
    </vehicle>
    <vehicle id="m43" type="moped" depart="106.81" departLane="free" departPos="random">
        <route edges="S2C C2N"/>
    </vehicle>
    <vehicle id="m44" type="moped" depart="109.98" departLane="free" departPos="random">
        <route edges="N2C C2S"/>
    </vehicle>
    <vehicle id="m45" type="moped" depart="110.84" departLane="free" departPos="random">
        <route edges="W2C C2E"/>
    </vehicle>
    <vehicle id="m46" type="moped" depart="111.09" departLane="free" departPos="random">
        <route edges="E2W C2W"/>
    </vehicle>
    <vehicle id="m47" type="moped" depart="111.38" departLane="free" departPos="random">
        <route edges="N2C C2S"/>
    </vehicle>
    <vehicle id="c40" type="car" depart="111.44" departLane="free" departPos="random">
        <route edges="N2C C2S"/>
    </vehicle>
    <vehicle id="m48" type="moped" depart="112.02" departLane="free" departPos="random">
        <route edges="S2C C2N"/>
    </vehicle>
    <vehicle id="m49" type="moped" depart="113.12" departLane="free" departPos="random">
        <route edges="W2C C2E"/>
    </vehicle>
    <vehicle id="m50" type="moped" depart="117.42" departLane="free" departPos="random">
        <route edges="W2C C2N"/>
    </vehicle>
    <vehicle id="m51" type="moped" depart="117.52" departLane="free" departPos="random">
        <route edges="W2C C2E"/>
    </vehicle>
    <vehicle id="m52" type="moped" depart="118.11" departLane="free" departPos="random">
        <route edges="E2W C2W"/>
    </vehicle>
    <vehicle id="c41" type="car" depart="119.48" departLane="free" departPos="random">
        <route edges="E2W C2W"/>
    </vehicle>
    <vehicle id="m53" type="moped" depart="120.18" departLane="free" departPos="random">
        <route edges="W2C C2E"/>
    </vehicle>
    <vehicle id="c42" type="car" depart="121.01" departLane="free" departPos="random">
        <route edges="N2C C2S"/>
    </vehicle>
    <vehicle id="m54" type="moped" depart="121.21" departLane="free" departPos="random">
        <route edges="N2C C2S"/>
    </vehicle>
    <vehicle id="m55" type="moped" depart="124.06" departLane="free" departPos="random">
        <route edges="W2C C2E"/>
    </vehicle>
    <vehicle id="c43" type="car" depart="124.81" departLane="free" departPos="random">
        <route edges="W2C C2E"/>
    </vehicle>
    <vehicle id="m56" type="moped" depart="126.03" departLane="free" departPos="random">
        <route edges="W2C C2E"/>
    </vehicle>
    <vehicle id="c44" type="car" depart="127.12" departLane="free" departPos="random">
        <route edges="N2C C2E"/>
    </vehicle>
    <vehicle id="m57" type="moped" depart="129.38" departLane="free" departPos="random">
        <route edges="E2W C2N"/>
    </vehicle>
    <vehicle id="c45" type="car" depart="129.67" departLane="free" departPos="random">
        <route edges="N2C C2S"/>
    </vehicle>
    <vehicle id="c46" type="car" depart="132.20" departLane="free" departPos="random">
        <route edges="W2C C2E"/>
    </vehicle>
    <vehicle id="m58" type="moped" depart="136.73" departLane="free" departPos="random">
        <route edges="N2C C2S"/>
    </vehicle>
    <vehicle id="c47" type="car" depart="138.33" departLane="free" departPos="random">
        <route edges="N2C C2E"/>
    </vehicle>
    <vehicle id="c48" type="car" depart="140.15" departLane="free" departPos="random">
        <route edges="E2W C2W"/>
    </vehicle>
    <vehicle id="c49" type="car" depart="140.39" departLane="free" departPos="random">
        <route edges="W2C C2E"/>
    </vehicle>
    <vehicle id="c50" type="car" depart="142.05" departLane="free" departPos="random">
        <route edges="W2C C2E"/>
    </vehicle>
    <vehicle id="m59" type="moped" depart="143.16" departLane="free" departPos="random">
        <route edges="W2C C2E"/>
    </vehicle>
    <vehicle id="m60" type="moped" depart="146.01" departLane="free" departPos="random">
        <route edges="N2C C2S"/>
    </vehicle>
    <vehicle id="m61" type="moped" depart="149.96" departLane="free" departPos="random">
        <route edges="W2C C2E"/>
    </vehicle>
    <vehicle id="c51" type="car" depart="150.02" departLane="free" departPos="random">
        <route edges="E2W C2W"/>
    </vehicle>
    <vehicle id="c52" type="car" depart="151.02" departLane="free" departPos="random">
        <route edges="W2C C2S"/>
    </vehicle>
    <vehicle id="m62" type="moped" depart="151.15" departLane="free" departPos="random">
        <route edges="W2C C2S"/>
    </vehicle>
    <vehicle id="c53" type="car" depart="151.29" departLane="free" departPos="random">
        <route edges="W2C C2E"/>
    </vehicle>
    <vehicle id="m63" type="moped" depart="152.25" departLane="free" departPos="random">
        <route edges="S2C C2N"/>
    </vehicle>
    <vehicle id="m64" type="moped" depart="154.22" departLane="free" departPos="random">
        <route edges="S2C C2N"/>
    </vehicle>
    <vehicle id="m65" type="moped" depart="154.83" departLane="free" departPos="random">
        <route edges="W2C C2E"/>
    </vehicle>
    <vehicle id="c54" type="car" depart="155.43" departLane="free" departPos="random">
        <route edges="W2C C2E"/>
    </vehicle>
    <vehicle id="c55" type="car" depart="157.46" departLane="free" departPos="random">
        <route edges="N2C C2S"/>
    </vehicle>
    <vehicle id="c56" type="car" depart="158.04" departLane="free" departPos="random">
        <route edges="W2C C2S"/>
    </vehicle>
    <vehicle id="m66" type="moped" depart="158.98" departLane="free" departPos="random">
        <route edges="N2C C2S"/>
    </vehicle>
    <vehicle id="m67" type="moped" depart="159.80" departLane="free" departPos="random">
        <route edges="S2C C2N"/>
    </vehicle>
    <vehicle id="m68" type="moped" depart="160.43" departLane="free" departPos="random">
        <route edges="S2C C2N"/>
    </vehicle>
    <vehicle id="m69" type="moped" depart="161.20" departLane="free" departPos="random">
        <route edges="N2C C2S"/>
    </vehicle>
    <vehicle id="m70" type="moped" depart="161.47" departLane="free" departPos="random">
        <route edges="N2C C2E"/>
    </vehicle>
    <vehicle id="c57" type="car" depart="161.68" departLane="free" departPos="random">
        <route edges="W2C C2E"/>
    </vehicle>
    <vehicle id="m71" type="moped" depart="163.15" departLane="free" departPos="random">
        <route edges="N2C C2S"/>
    </vehicle>
    <vehicle id="m72" type="moped" depart="163.45" departLane="free" departPos="random">
        <route edges="N2C C2S"/>
    </vehicle>
    <vehicle id="c58" type="car" depart="164.34" departLane="free" departPos="random">
        <route edges="E2W C2W"/>
    </vehicle>
    <vehicle id="m73" type="moped" depart="165.80" departLane="free" departPos="random">
        <route edges="S2C C2N"/>
    </vehicle>
    <vehicle id="m74" type="moped" depart="166.04" departLane="free" departPos="random">
        <route edges="W2C C2E"/>
    </vehicle>
    <vehicle id="c59" type="car" depart="168.67" departLane="free" departPos="random">
        <route edges="W2C C2E"/>
    </vehicle>
    <vehicle id="m75" type="moped" depart="171.51" departLane="free" departPos="random">
        <route edges="N2C C2E"/>
    </vehicle>
    <vehicle id="c60" type="car" depart="173.31" departLane="free" departPos="random">
        <route edges="N2C C2S"/>
    </vehicle>
    <vehicle id="c61" type="car" depart="173.47" departLane="free" departPos="random">
        <route edges="N2C C2E"/>
    </vehicle>
    <vehicle id="m76" type="moped" depart="175.17" departLane="free" departPos="random">
        <route edges="W2C C2E"/>
    </vehicle>
    <vehicle id="m77" type="moped" depart="178.19" departLane="free" departPos="random">
        <route edges="N2C C2S"/>
    </vehicle>
    <vehicle id="c62" type="car" depart="179.92" departLane="free" departPos="random">
        <route edges="N2C C2S"/>
    </vehicle>
    <vehicle id="m78" type="moped" depart="180.07" departLane="free" departPos="random">
        <route edges="W2C C2E"/>
    </vehicle>
    <vehicle id="c63" type="car" depart="180.81" departLane="free" departPos="random">
        <route edges="E2W C2W"/>
    </vehicle>
    <vehicle id="m79" type="moped" depart="181.76" departLane="free" departPos="random">
        <route edges="S2C C2W W2C"/>
    </vehicle>
    <vehicle id="c64" type="car" depart="184.09" departLane="free" departPos="random">
        <route edges="N2C C2S"/>
    </vehicle>
    <vehicle id="m80" type="moped" depart="186.82" departLane="free" departPos="random">
        <route edges="N2C C2S"/>
    </vehicle>
    <vehicle id="m81" type="moped" depart="186.84" departLane="free" departPos="random">
        <route edges="N2C C2S"/>
    </vehicle>
    <vehicle id="c65" type="car" depart="187.04" departLane="free" departPos="random">
        <route edges="N2C C2E"/>
    </vehicle>
    <vehicle id="m82" type="moped" depart="187.92" departLane="free" departPos="random">
        <route edges="N2C C2S"/>
    </vehicle>
    <vehicle id="c66" type="car" depart="188.13" departLane="free" departPos="random">
        <route edges="N2C C2W"/>
    </vehicle>
    <vehicle id="c67" type="car" depart="188.48" departLane="free" departPos="random">
        <route edges="S2C C2N"/>
    </vehicle>
    <vehicle id="c68" type="car" depart="195.60" departLane="free" departPos="random">
        <route edges="E2W C2W"/>
    </vehicle>
    <vehicle id="c69" type="car" depart="205.40" departLane="free" departPos="random">
        <route edges="S2C C2N"/>
    </vehicle>
    <vehicle id="c70" type="car" depart="207.53" departLane="free" departPos="random">
        <route edges="W2C C2E"/>
    </vehicle>
    <vehicle id="m83" type="moped" depart="207.73" departLane="free" departPos="random">
        <route edges="S2C C2N"/>
    </vehicle>
    <vehicle id="m84" type="moped" depart="207.87" departLane="free" departPos="random">
        <route edges="E2W C2S"/>
    </vehicle>
    <vehicle id="c71" type="car" depart="208.24" departLane="free" departPos="random">
        <route edges="E2W C2W"/>
    </vehicle>
    <vehicle id="c72" type="car" depart="209.13" departLane="free" departPos="random">
        <route edges="N2C C2S"/>
    </vehicle>
    <vehicle id="c73" type="car" depart="210.78" departLane="free" departPos="random">
        <route edges="N2C C2S"/>
    </vehicle>
    <vehicle id="m85" type="moped" depart="212.74" departLane="free" departPos="random">
        <route edges="S2C C2W W2C"/>
    </vehicle>
    <vehicle id="m86" type="moped" depart="214.10" departLane="free" departPos="random">
        <route edges="W2C C2S"/>
    </vehicle>
    <vehicle id="c74" type="car" depart="214.29" departLane="free" departPos="random">
        <route edges="S2C C2N"/>
    </vehicle>
    <vehicle id="m87" type="moped" depart="214.98" departLane="free" departPos="random">
        <route edges="N2C C2S"/>
    </vehicle>
    <vehicle id="m88" type="moped" depart="218.26" departLane="free" departPos="random">
        <route edges="N2C C2S"/>
    </vehicle>
    <vehicle id="m89" type="moped" depart="220.79" departLane="free" departPos="random">
        <route edges="S2C C2N"/>
    </vehicle>
    <vehicle id="c75" type="car" depart="223.93" departLane="free" departPos="random">
        <route edges="N2C C2S"/>
    </vehicle>
    <vehicle id="c76" type="car" depart="224.18" departLane="free" departPos="random">
        <route edges="N2C C2S"/>
    </vehicle>
    <vehicle id="c77" type="car" depart="224.25" departLane="free" departPos="random">
        <route edges="N2C C2S"/>
    </vehicle>
    <vehicle id="c78" type="car" depart="224.85" departLane="free" departPos="random">
        <route edges="N2C C2S"/>
    </vehicle>
    <vehicle id="c79" type="car" depart="225.55" departLane="free" departPos="random">
        <route edges="N2C C2S"/>
    </vehicle>
    <vehicle id="c80" type="car" depart="225.68" departLane="free" departPos="random">
        <route edges="S2C C2N"/>
    </vehicle>
    <vehicle id="m90" type="moped" depart="227.31" departLane="free" departPos="random">
        <route edges="E2W C2W"/>
    </vehicle>
    <vehicle id="c81" type="car" depart="229.11" departLane="free" departPos="random">
        <route edges="E2W C2N"/>
    </vehicle>
    <vehicle id="m91" type="moped" depart="232.17" departLane="free" departPos="random">
        <route edges="S2C C2N"/>
    </vehicle>
    <vehicle id="m92" type="moped" depart="232.87" departLane="free" departPos="random">
        <route edges="N2C C2S"/>
    </vehicle>
    <vehicle id="c82" type="car" depart="233.47" departLane="free" departPos="random">
        <route edges="W2C C2N"/>
    </vehicle>
    <vehicle id="c83" type="car" depart="234.74" departLane="free" departPos="random">
        <route edges="S2C C2E"/>
    </vehicle>
    <vehicle id="c84" type="car" depart="235.32" departLane="free" departPos="random">
        <route edges="W2C C2E"/>
    </vehicle>
    <vehicle id="c85" type="car" depart="236.50" departLane="free" departPos="random">
        <route edges="N2C C2W"/>
    </vehicle>
    <vehicle id="c86" type="car" depart="237.64" departLane="free" departPos="random">
        <route edges="W2C C2N"/>
    </vehicle>
    <vehicle id="c87" type="car" depart="239.20" departLane="free" departPos="random">
        <route edges="W2C C2E"/>
    </vehicle>
    <vehicle id="c88" type="car" depart="239.95" departLane="free" departPos="random">
        <route edges="N2C C2S"/>
    </vehicle>
    <vehicle id="m93" type="moped" depart="242.58" departLane="free" departPos="random">
        <route edges="W2C C2E"/>
    </vehicle>
    <vehicle id="c89" type="car" depart="243.61" departLane="free" departPos="random">
        <route edges="N2C C2S"/>
    </vehicle>
    <vehicle id="m94" type="moped" depart="246.00" departLane="free" departPos="random">
        <route edges="W2C C2N"/>
    </vehicle>
    <vehicle id="m95" type="moped" depart="246.03" departLane="free" departPos="random">
        <route edges="S2C C2N"/>
    </vehicle>
    <vehicle id="m96" type="moped" depart="246.62" departLane="free" departPos="random">
        <route edges="N2C C2E"/>
    </vehicle>
    <vehicle id="c90" type="car" depart="248.25" departLane="free" departPos="random">
        <route edges="W2C C2S"/>
    </vehicle>
    <vehicle id="c91" type="car" depart="248.43" departLane="free" departPos="random">
        <route edges="W2C C2N"/>
    </vehicle>
    <vehicle id="m97" type="moped" depart="248.51" departLane="free" departPos="random">
        <route edges="S2C C2N"/>
    </vehicle>
    <vehicle id="c92" type="car" depart="250.71" departLane="free" departPos="random">
        <route edges="S2C C2N"/>
    </vehicle>
    <vehicle id="m98" type="moped" depart="252.01" departLane="free" departPos="random">
        <route edges="N2C C2S"/>
    </vehicle>
    <vehicle id="m99" type="moped" depart="255.21" departLane="free" departPos="random">
        <route edges="S2C C2N"/>
    </vehicle>
    <vehicle id="c93" type="car" depart="255.36" departLane="free" departPos="random">
        <route edges="W2C C2N"/>
    </vehicle>
    <vehicle id="c94" type="car" depart="255.63" departLane="free" departPos="random">
        <route edges="W2C C2E"/>
    </vehicle>
    <vehicle id="c95" type="car" depart="256.17" departLane="free" departPos="random">
        <route edges="N2C C2E"/>
    </vehicle>
    <vehicle id="c96" type="car" depart="256.52" departLane="free" departPos="random">
        <route edges="W2C C2N"/>
    </vehicle>
    <vehicle id="c97" type="car" depart="258.16" departLane="free" departPos="random">
        <route edges="W2C C2S"/>
    </vehicle>
    <vehicle id="c98" type="car" depart="258.39" departLane="free" departPos="random">
        <route edges="S2C C2E"/>
    </vehicle>
    <vehicle id="c99" type="car" depart="259.50" departLane="free" departPos="random">
        <route edges="N2C C2S"/>
    </vehicle>
    <vehicle id="m100" type="moped" depart="259.60" departLane="free" departPos="random">
        <route edges="W2C C2N"/>
    </vehicle>
    <vehicle id="c100" type="car" depart="260.34" departLane="free" departPos="random">
        <route edges="N2C C2S"/>
    </vehicle>
    <vehicle id="m101" type="moped" depart="261.62" departLane="free" departPos="random">
        <route edges="E2W C2W"/>
    </vehicle>
    <vehicle id="c101" type="car" depart="262.45" departLane="free" departPos="random">
        <route edges="W2C C2S"/>
    </vehicle>
    <vehicle id="c102" type="car" depart="263.09" departLane="free" departPos="random">
        <route edges="S2C C2W W2C"/>
    </vehicle>
    <vehicle id="m102" type="moped" depart="266.55" departLane="free" departPos="random">
        <route edges="S2C C2N"/>
    </vehicle>
    <vehicle id="m103" type="moped" depart="267.27" departLane="free" departPos="random">
        <route edges="E2W C2W"/>
    </vehicle>
    <vehicle id="c103" type="car" depart="272.18" departLane="free" departPos="random">
        <route edges="N2C C2S"/>
    </vehicle>
    <vehicle id="c104" type="car" depart="274.46" departLane="free" departPos="random">
        <route edges="W2C C2E"/>
    </vehicle>
    <vehicle id="m104" type="moped" depart="274.99" departLane="free" departPos="random">
        <route edges="W2C C2E"/>
    </vehicle>
    <vehicle id="m105" type="moped" depart="275.89" departLane="free" departPos="random">
        <route edges="N2C C2S"/>
    </vehicle>
    <vehicle id="c105" type="car" depart="276.70" departLane="free" departPos="random">
        <route edges="S2C C2N"/>
    </vehicle>
    <vehicle id="c106" type="car" depart="277.41" departLane="free" departPos="random">
        <route edges="N2C C2S"/>
    </vehicle>