<?xml version="1.0" encoding="UTF-8"?>

<!-- generated on 2025-03-21 14:45:57 by Eclipse SUMO netedit Version 1.22.0
<neteditConfiguration xmlns:xsi="http://www.w3.org/2001/XMLSchema-instance" xsi:noNamespaceSchemaLocation="http://sumo.dlr.de/xsd/neteditConfiguration.xsd">

    <input>
        <sumocfg-file value="C:\Users\tuand\Downloads\New folder\intersection_complete.sumocfg"/>
        <additional-files value=""/>
        <route-files value="C:\Users\tuand\Downloads\New folder\intersection.rou.xml"/>
        <sumo-net-file value="C:\Users\tuand\Downloads\New folder\intersection_fixed.net.xml"/>
    </input>

    <output>
        <output-file value="C:\Users\tuand\Downloads\New folder\intersection_fixed.net.xml"/>
    </output>

    <processing>
        <geometry.min-radius.fix.railways value="false"/>
        <geometry.max-grade.fix value="false"/>
        <offset.disable-normalization value="true"/>
        <lefthand value="0"/>
    </processing>

    <junctions>
        <no-turnarounds value="true"/>
        <junctions.corner-detail value="5"/>
        <junctions.limit-turn-speed value="5.50"/>
        <rectangular-lane-cut value="0"/>
    </junctions>

    <pedestrian>
        <walkingareas value="0"/>
    </pedestrian>

    <netedit>
        <ignore.routeelements value="false"/>
    </netedit>

</neteditConfiguration>
-->

<net version="1.20" junctionCornerDetail="5" limitTurnSpeed="5.50" xmlns:xsi="http://www.w3.org/2001/XMLSchema-instance" xsi:noNamespaceSchemaLocation="http://sumo.dlr.de/xsd/net_file.xsd">

    <location netOffset="100.00,100.00" convBoundary="0.00,0.00,200.00,200.00" origBoundary="-10000000000.00,-10000000000.00,10000000000.00,10000000000.00" projParameter="!"/>

    <!-- North turn right -->
    <edge id=":C_0" function="internal">
        <lane id=":C_0_0" index="0" speed="6.51" length="9.04" shape="92.00,107.28 91.65,104.83 90.60,103.08 88.85,102.03 86.40,101.68"/>
    </edge>
    <!-- North go straight -->
    <edge id=":C_1" function="internal">
        <lane id=":C_1_0" index="0" speed="13.89" length="14.40" shape="92.00,107.28 92.00,92.88"/>
        <lane id=":C_1_1" index="1" speed="13.89" length="14.40" shape="95.20,107.28 95.20,92.88"/>
        <lane id=":C_1_2" index="2" speed="13.89" length="14.40" shape="98.40,107.28 98.40,92.88"/>
    </edge>
    <!-- North turn left -->
    <edge id=":C_2" function="internal">
        <lane id=":C_2_0" index="0" speed="9.32" length="19.63" shape="98.40,107.28 99.35,103.43 102.20,100.69 106.95,99.03 113.60,98.48"/>
    </edge>

    <!-- East turn right -->
    <edge id=":C_3" function="internal">
        <lane id=":C_3_0" index="0" speed="6.51" length="9.04" shape="113.60,101.68 110.85,101.33 108.80,100.28 107.45,98.53 107.20,96.08"/>
    </edge>
    <!-- East go straight -->
    <edge id=":C_4" function="internal">
        <lane id=":C_4_0" index="0" speed="13.89" length="27.20" shape="113.60,101.68 86.40,101.68"/>
    </edge>
    <!-- East turn left -->
    <edge id=":C_5" function="internal">
        <lane id=":C_5_0" index="0" speed="9.32" length="19.63" shape="113.60,98.48 107.25,97.93 102.80,96.28 100.25,93.53 99.60,89.68"/>
    </edge>

    <!-- South turn right -->
    <edge id=":C_6" function="internal">
        <lane id=":C_6_0" index="0" speed="6.51" length="9.04" shape="108.00,92.88 108.35,95.33 109.40,97.08 111.15,98.13 113.60,98.48"/>
    </edge>
    <!-- South go straight -->
    <edge id=":C_7" function="internal">
        <lane id=":C_7_0" index="0" speed="13.89" length="14.40" shape="108.00,92.88 108.00,107.28"/>
        <lane id=":C_7_1" index="1" speed="13.89" length="14.40" shape="104.80,92.88 104.80,107.28"/>
        <lane id=":C_7_2" index="2" speed="13.89" length="14.40" shape="101.60,92.88 101.60,107.28"/>
    </edge>
    <!-- South turn left -->
    <edge id=":C_8" function="internal">
        <lane id=":C_8_0" index="0" speed="9.32" length="19.63" shape="101.60,92.88 100.65,96.73 97.80,99.47 93.05,101.13 86.40,101.68"/>
    </edge>

    <!-- West turn right -->
    <edge id=":C_9" function="internal">
        <lane id=":C_9_0" index="0" speed="6.51" length="9.04" shape="86.40,98.48 89.15,98.83 91.20,99.88 92.55,101.63 92.80,104.08"/>
    </edge>
    <!-- West go straight -->
    <edge id=":C_10" function="internal">
        <lane id=":C_10_0" index="0" speed="13.89" length="27.20" shape="86.40,101.68 113.60,101.68"/>
    </edge>
    <!-- West turn left -->
    <edge id=":C_11" function="internal">
        <lane id=":C_11_0" index="0" speed="9.32" length="19.63" shape="86.40,101.68 92.75,102.23 97.20,103.88 99.75,106.63 100.40,110.48"/>
    </edge>


    <edge id="C2E" from="C" to="E" priority="3">
        <lane id="C2E_0" index="0" speed="13.89" length="86.40" shape="113.60,98.48 200.00,98.40"/>
    </edge>
    <edge id="C2N" from="C" to="N" priority="3">
        <lane id="C2N_0" index="0" speed="13.89" length="92.72" shape="108.00,107.28 108.00,200.00"/>
        <lane id="C2N_1" index="1" speed="13.89" length="92.72" shape="104.80,107.28 104.80,200.00"/>
        <lane id="C2N_2" index="2" speed="13.89" length="92.72" shape="101.60,107.28 101.60,200.00"/>
    </edge>
    <edge id="C2S" from="C" to="S" priority="3">
        <lane id="C2S_0" index="0" speed="13.89" length="92.88" shape="92.00,92.88 92.00,0.00"/>
        <lane id="C2S_1" index="1" speed="13.89" length="92.88" shape="95.20,92.88 95.20,0.00"/>
        <lane id="C2S_2" index="2" speed="13.89" length="92.88" shape="98.40,92.88 98.40,0.00"/>
    </edge>
    <edge id="C2W" from="C" to="W" priority="3">
        <lane id="C2W_0" index="0" speed="13.89" length="86.40" shape="86.40,101.68 -0.00,101.60"/>
    </edge>
    <edge id="E2C" from="E" to="C" priority="3">
        <lane id="E2C_0" index="0" speed="13.89" length="86.40" shape="200.00,101.60 113.60,101.68"/>
    </edge>
    <edge id="N2C" from="N" to="C" priority="3">
        <lane id="N2C_0" index="0" speed="13.89" length="92.72" shape="92.00,200.00 92.00,107.28"/>
        <lane id="N2C_1" index="1" speed="13.89" length="92.72" shape="95.20,200.00 95.20,107.28"/>
        <lane id="N2C_2" index="2" speed="13.89" length="92.72" shape="98.40,200.00 98.40,107.28"/>
    </edge>
    <edge id="S2C" from="S" to="C" priority="3">
        <lane id="S2C_0" index="0" speed="13.89" length="92.88" shape="108.00,0.00 108.00,92.88"/>
        <lane id="S2C_1" index="1" speed="13.89" length="92.88" shape="104.80,0.00 104.80,92.88"/>
        <lane id="S2C_2" index="2" speed="13.89" length="92.88" shape="101.60,0.00 101.60,92.88"/>
    </edge>
    <edge id="W2C" from="W" to="C" priority="3">
        <lane id="W2C_0" index="0" speed="13.89" length="86.40" shape="0.00,98.40 86.40,98.48"/>
    </edge>

    <tlLogic id="C" type="static" programID="0" offset="0">
        <phase duration="31" state="GGGGGGGGrrrrrrrr"/>
        <phase duration="3"  state="yyyyyyyyrrrrrrrr"/>
        <phase duration="1"  state="rrrrrrrrrrrrrrrr"/>

        <phase duration="31" state="rrrrrrrrGGGGGGrr"/>
        <phase duration="3"  state="rrrrrrrryyyyyyrr"/>
        <phase duration="1"  state="rrrrrrrrrrrrrrrr"/>

        <phase duration="31" state="rrrrrrrrrrrrrrGG"/>
        <phase duration="3"  state="rrrrrrrrrrrrrryy"/>
        <phase duration="1"  state="rrrrrrrrrrrrrrrr"/>
    </tlLogic>

    <junction id="C" type="traffic_light" x="100.00" y="100.09" incLanes="N2C_0 N2C_1 N2C_2 E2C_0 S2C_0 S2C_1 S2C_2 W2C_0" intLanes=":C_0_0 :C_1_0 :C_1_1 :C_1_2 :C_2_0 :C_3_0 :C_4_0 :C_5_0 :C_6_0 :C_7_0 :C_7_1 :C_7_2 :C_8_0 :C_9_0 :C_10_0 :C_11_0" shape="90.40,107.28 109.60,107.28 110.05,105.06 110.60,104.28 111.38,103.72 112.38,103.39 113.61,103.28 113.60,96.88 111.38,96.44 110.60,95.88 110.04,95.10 109.71,94.10 109.60,92.88 90.40,92.88 89.96,95.10 89.40,95.88 88.62,96.44 87.62,96.77 86.40,96.88 86.39,103.28 88.62,103.72 89.40,104.28 89.95,105.06 90.29,106.06">
        <!-- North approach movements -->
        <request index="0" response="0000000000000000" foes="0000100001000000" cont="0"/>  <!-- N2C -> C2W (right) -->
        <request index="1" response="0000000000000000" foes="1111100011000000" cont="0"/>  <!-- N2C -> C2S (straight) -->
        <request index="2" response="0000000000000000" foes="1111100011000000" cont="0"/>  <!-- N2C -> C2S (straight) -->
        <request index="3" response="0000000000000000" foes="1111100011000000" cont="0"/>  <!-- N2C -> C2S (straight) -->
        <request index="4" response="0000011100000000" foes="1110011111000000" cont="0"/>  <!-- N2C -> C2E (left) -->

        <!-- East approach movements -->
        <request index="5" response="0000011000000000" foes="0000011000000000" cont="0"/>  <!-- E2C -> C2N (right) -->
        <request index="6" response="0000111000001111" foes="1000111000001111" cont="0"/>  <!-- E2C -> C2W (straight) -->
        <request index="7" response="0111111000001110" foes="0111111000001110" cont="0"/>  <!-- E2C -> C2S (left) -->

        <!-- South approach movements -->
        <request index="8" response="0000000000000000" foes="0000000000001000" cont="0"/>  <!-- S2C -> C2E (right) -->
        <request index="9" response="0000000000000000" foes="1000000011111000" cont="0"/>  <!-- S2C -> C2N (straight) -->
        <request index="10" response="0000000000000000" foes="1000000011111000" cont="0"/> <!-- S2C -> C2N (straight) -->
        <request index="11" response="0000000000000000" foes="1000000011111000" cont="0"/> <!-- S2C -> C2N (straight) -->
        <request index="12" response="0000000000000111" foes="1000000011110111" cont="0"/> <!-- S2C -> C2W (left) -->

        <!-- West approach movements -->
        <request index="13" response="0000000000000000" foes="0000000000001000" cont="0"/> <!-- W2C -> C2S (right) -->
        <request index="14" response="0111100000001000" foes="0111110000001000" cont="0"/> <!-- W2C -> C2E (straight) -->
        <request index="15" response="0111001111110000" foes="0111001111111000" cont="0"/> <!-- W2C -> C2N (left) -->
    </junction>
    <junction id="E" type="dead_end" x="200.00" y="100.00" incLanes="C2E_0" intLanes="" shape="200.00,100.00 200.00,96.80 200.00,100.00"/>
    <junction id="N" type="dead_end" x="100.00" y="200.00" incLanes="C2N_0 C2N_1 C2N_2" intLanes="" shape="100.00,200.00 109.60,200.00 100.00,200.00"/>
    <junction id="S" type="dead_end" x="100.00" y="0.00" incLanes="C2S_0 C2S_1 C2S_2" intLanes="" shape="100.00,0.00 90.40,0.00 100.00,0.00"/>
    <junction id="W" type="dead_end" x="0.00" y="100.00" incLanes="C2W_0" intLanes="" shape="0.00,100.00 -0.00,103.20 0.00,100.00"/>


    // North to South go straight and turn right
    <connection from="N2C" to="C2S" fromLane="0" toLane="0" via=":C_1_0" tl="C" linkIndex="0" dir="s" state="O"/>
    <connection from="N2C" to="C2S" fromLane="1" toLane="1" via=":C_1_1" tl="C" linkIndex="1" dir="s" state="O"/>
    <connection from="N2C" to="C2S" fromLane="2" toLane="2" via=":C_1_2" tl="C" linkIndex="2" dir="s" state="O"/>
    <connection from="N2C" to="C2W" fromLane="0" toLane="0" via=":C_0_0" tl="C" linkIndex="3" dir="r" state="O"/>

    // South to North go straight and turn right
    <connection from="S2C" to="C2N" fromLane="0" toLane="0" via=":C_7_0" tl="C" linkIndex="4" dir="s" state="O"/>
    <connection from="S2C" to="C2N" fromLane="1" toLane="1" via=":C_7_1" tl="C" linkIndex="5" dir="s" state="O"/>
    <connection from="S2C" to="C2N" fromLane="2" toLane="2" via=":C_7_2" tl="C" linkIndex="6" dir="s" state="O"/>
    <connection from="S2C" to="C2E" fromLane="0" toLane="0" via=":C_6_0" tl="C" linkIndex="7" dir="r" state="O"/>

    // East to West go straight, turn right and left
    <connection from="E2C" to="C2W" fromLane="0" toLane="0" via=":C_4_0" tl="C" linkIndex="8" dir="s" state="O"/>
    <connection from="E2C" to="C2N" fromLane="0" toLane="0" via=":C_3_0" tl="C" linkIndex="9" dir="r" state="O"/>
    <connection from="E2C" to="C2S" fromLane="0" toLane="0" via=":C_5_0" tl="C" linkIndex="10" dir="l" state="O"/>

    // West to East go straight, turn right and left
    <connection from="W2C" to="C2E" fromLane="0" toLane="0" via=":C_10_0" tl="C" linkIndex="11" dir="s" state="O"/>
    <connection from="W2C" to="C2S" fromLane="0" toLane="0" via=":C_9_0" tl="C" linkIndex="12" dir="r" state="O"/>
    <connection from="W2C" to="C2N" fromLane="0" toLane="0" via=":C_11_0" tl="C" linkIndex="13" dir="l" state="O"/>

    // North to East turn left
    <connection from="N2C" to="C2E" fromLane="2" toLane="0" via=":C_2_0" tl="C" linkIndex="14" dir="l" state="O"/>

    // South to West turn left
    <connection from="S2C" to="C2W" fromLane="2" toLane="0" via=":C_8_0" tl="C" linkIndex="15" dir="l" state="O"/>

    <!-- Internal connections -->
    <connection from=":C_0" to="C2W" fromLane="0" toLane="0" dir="r" state="M"/>
    <connection from=":C_1" to="C2S" fromLane="0" toLane="0" dir="s" state="M"/>
    <connection from=":C_1" to="C2S" fromLane="1" toLane="1" dir="s" state="M"/>
    <connection from=":C_1" to="C2S" fromLane="2" toLane="2" dir="s" state="M"/>
    <connection from=":C_2" to="C2E" fromLane="0" toLane="0" dir="l" state="M"/>

    <connection from=":C_3" to="C2N" fromLane="0" toLane="0" dir="r" state="M"/>
    <connection from=":C_4" to="C2W" fromLane="0" toLane="0" dir="s" state="M"/>
    <connection from=":C_5" to="C2S" fromLane="0" toLane="0" dir="l" state="M"/>

    <connection from=":C_6" to="C2E" fromLane="0" toLane="0" dir="r" state="M"/>
    <connection from=":C_7" to="C2N" fromLane="0" toLane="0" dir="s" state="M"/>
    <connection from=":C_7" to="C2N" fromLane="1" toLane="1" dir="s" state="M"/>
    <connection from=":C_7" to="C2N" fromLane="2" toLane="2" dir="s" state="M"/>
    <connection from=":C_8" to="C2W" fromLane="0" toLane="0" dir="l" state="M"/>

    <connection from=":C_9" to="C2S" fromLane="0" toLane="0" dir="r" state="M"/>
    <connection from=":C_10" to="C2E" fromLane="0" toLane="0" dir="s" state="M"/>
    <connection from=":C_11" to="C2N" fromLane="0" toLane="0" dir="l" state="M"/>
</net>
